version 3
run IPsecBlocking-0-20251030-17:03:38-14064
attr configname IPsecBlocking
attr datetime 20251030-17:03:38
attr datetimef 20251030-170338
attr experiment IPsecBlocking
attr inifile omnetpp.ini
attr iterationvars ""
attr iterationvarsd ""
attr iterationvarsf ""
attr measurement ""
attr network vpnblocking.VPNBlockNetwork
attr processid 14064
attr repetition 0
attr replication #0
attr resultdir results
attr runnumber 0
attr seedset 0
config image-path ../inet4.5/images
config description "Block IPsec VPN traffic"
config **.client.app[0].simulateIPsec true
config network vpnblocking.VPNBlockNetwork
config sim-time-limit 100s
config cmdenv-express-mode true
config cmdenv-autoflush true
config **.vector-recording true
config **.scalar-recording true
config **.client.numApps 1
config **.client.app[0].typename VPNTrafficApp
config **.client.app[0].localPort 5000
config **.client.app[0].destPort 5000
config **.client.app[0].destAddresses "\"blockedServer\""
config **.client.app[0].startTime 1s
config **.client.app[0].stopTime 90s
config **.client.app[0].sendInterval exponential(0.5s)
config **.client.app[0].packetLength 1200B
config **.client.app[0].simulateIPsec true
config **.blockedServer.numApps 1
config **.blockedServer.app[0].typename UdpBasicApp
config **.blockedServer.app[0].localPort 5000
config **.client.eth[*].bitrate 100Mbps
config **.gateway.eth[*].bitrate 100Mbps
config **.blockedServer.eth[*].bitrate 100Mbps

par VPNBlockNetwork.client.ethg$o[0].channel typename "\"vpnblocking.VPNBlockNetwork.EthernetLink\""
par VPNBlockNetwork.client.ethg$o[0].channel disabled false
attr mutable ""
par VPNBlockNetwork.client.ethg$o[0].channel delay 1e-07s
attr mutable ""
attr unit s
par VPNBlockNetwork.client.ethg$o[0].channel datarate 1e+08bps
attr mutable ""
attr unit bps
par VPNBlockNetwork.client.ethg$o[0].channel ber 0
attr mutable ""
par VPNBlockNetwork.client.ethg$o[0].channel per 0
attr mutable ""
par VPNBlockNetwork.gateway.ethg$o[0].channel typename "\"vpnblocking.VPNBlockNetwork.EthernetLink\""
par VPNBlockNetwork.gateway.ethg$o[0].channel disabled false
attr mutable ""
par VPNBlockNetwork.gateway.ethg$o[0].channel delay 1e-07s
attr mutable ""
attr unit s
par VPNBlockNetwork.gateway.ethg$o[0].channel datarate 1e+08bps
attr mutable ""
attr unit bps
par VPNBlockNetwork.gateway.ethg$o[0].channel ber 0
attr mutable ""
par VPNBlockNetwork.gateway.ethg$o[0].channel per 0
attr mutable ""
par VPNBlockNetwork.gateway.ethg$o[1].channel typename "\"vpnblocking.VPNBlockNetwork.EthernetLink\""
par VPNBlockNetwork.gateway.ethg$o[1].channel disabled false
attr mutable ""
par VPNBlockNetwork.gateway.ethg$o[1].channel delay 1e-07s
attr mutable ""
attr unit s
par VPNBlockNetwork.gateway.ethg$o[1].channel datarate 1e+08bps
attr mutable ""
attr unit bps
par VPNBlockNetwork.gateway.ethg$o[1].channel ber 0
attr mutable ""
par VPNBlockNetwork.gateway.ethg$o[1].channel per 0
attr mutable ""
par VPNBlockNetwork.blockedServer.ethg$o[0].channel typename "\"vpnblocking.VPNBlockNetwork.EthernetLink\""
par VPNBlockNetwork.blockedServer.ethg$o[0].channel disabled false
attr mutable ""
par VPNBlockNetwork.blockedServer.ethg$o[0].channel delay 1e-07s
attr mutable ""
attr unit s
par VPNBlockNetwork.blockedServer.ethg$o[0].channel datarate 1e+08bps
attr mutable ""
attr unit bps
par VPNBlockNetwork.blockedServer.ethg$o[0].channel ber 0
attr mutable ""
par VPNBlockNetwork.blockedServer.ethg$o[0].channel per 0
attr mutable ""
par VPNBlockNetwork.configurator typename "\"inet.networklayer.configurator.ipv4.Ipv4NetworkConfigurator\""
par VPNBlockNetwork.configurator minLinkWeight 0.001
par VPNBlockNetwork.configurator configureIsolatedNetworksSeparatly false
par VPNBlockNetwork.configurator config "<config>...</config> at content:1"
par VPNBlockNetwork.configurator assignAddresses true
par VPNBlockNetwork.configurator assignUniqueAddresses true
par VPNBlockNetwork.configurator assignDisjunctSubnetAddresses true
par VPNBlockNetwork.configurator addStaticRoutes true
par VPNBlockNetwork.configurator addDefaultRoutes true
par VPNBlockNetwork.configurator addSubnetRoutes true
par VPNBlockNetwork.configurator addDirectRoutes true
par VPNBlockNetwork.configurator optimizeRoutes true
par VPNBlockNetwork.configurator dumpTopology false
par VPNBlockNetwork.configurator dumpLinks false
par VPNBlockNetwork.configurator dumpAddresses false
par VPNBlockNetwork.configurator dumpRoutes false
par VPNBlockNetwork.configurator dumpConfig "\"\""
par VPNBlockNetwork.client.ethg$i[0].channel typename "\"ned.IdealChannel\""
par VPNBlockNetwork.client.eth[0].phys$o.channel typename "\"ned.IdealChannel\""
par VPNBlockNetwork.client.interfaceTable typename "\"inet.networklayer.common.InterfaceTable\""
par VPNBlockNetwork.client.interfaceTable displayAddresses false
par VPNBlockNetwork.client.cb typename "\"inet.common.MessageDispatcher\""
par VPNBlockNetwork.client.cb displayStringTextFormat "\"processed %p pk (%l)\""
par VPNBlockNetwork.client.cb forwardServiceRegistration true
par VPNBlockNetwork.client.cb forwardProtocolRegistration true
par VPNBlockNetwork.client.bl typename "\"inet.common.MessageDispatcher\""
par VPNBlockNetwork.client.bl displayStringTextFormat "\"processed %p pk (%l)\""
par VPNBlockNetwork.client.bl forwardServiceRegistration true
par VPNBlockNetwork.client.bl forwardProtocolRegistration true
par VPNBlockNetwork.client.ethernet typename "\"inet.linklayer.ethernet.basic.EthernetEncapsulation\""
par VPNBlockNetwork.client.ethernet registerProtocol true
par VPNBlockNetwork.client.ethernet interfaceTableModule "\"VPNBlockNetwork.client.interfaceTable\""
par VPNBlockNetwork.client.ethernet fcsMode "\"declared\""
attr enum declared,computed
par VPNBlockNetwork.client.ethernet stopOperationExtraTime -1s
attr unit s
par VPNBlockNetwork.client.ethernet stopOperationTimeout 2s
attr unit s
scalar VPNBlockNetwork.client.ethernet decapPk:count 225
attr interpolationmode none
attr recordingmode count
attr source decapPk
attr title "packets decapsulated, count"
scalar VPNBlockNetwork.client.ethernet decapPk:sum(packetBytes) 12590
attr interpolationmode none
attr recordingmode sum(packetBytes)
attr source decapPk
attr title "packets decapsulated, sum(packetBytes)"
scalar VPNBlockNetwork.client.ethernet encapPk:count 225
attr interpolationmode none
attr recordingmode count
attr source encapPk
attr title "packets encapsulated, count"
scalar VPNBlockNetwork.client.ethernet encapPk:sum(packetBytes) 275100
attr interpolationmode none
attr recordingmode sum(packetBytes)
attr source encapPk
attr title "packets encapsulated, sum(packetBytes)"
scalar VPNBlockNetwork.client.ethernet pauseSent:count 0
attr recordingmode count
attr title "pause sent, count"
scalar VPNBlockNetwork.client.ethernet pauseSent:sum 0
attr recordingmode sum
attr title "pause sent, sum"
par VPNBlockNetwork.client.li typename "\"inet.common.MessageDispatcher\""
par VPNBlockNetwork.client.li displayStringTextFormat "\"processed %p pk (%l)\""
par VPNBlockNetwork.client.li forwardServiceRegistration true
par VPNBlockNetwork.client.li forwardProtocolRegistration true
par VPNBlockNetwork.client.lo[0].upperLayerIn.channel typename "\"ned.IdealChannel\""
par VPNBlockNetwork.client.lo[0].lo.upperLayerOut.channel typename "\"ned.IdealChannel\""
par VPNBlockNetwork.client.lo[0].lo typename "\"inet.linklayer.loopback.Loopback\""
par VPNBlockNetwork.client.lo[0].lo interfaceTableModule "\"VPNBlockNetwork.client.interfaceTable\""
par VPNBlockNetwork.client.lo[0].lo mtu 4470B
attr unit B
scalar VPNBlockNetwork.client.lo[0].lo rcvdPkFromHl:count 0
attr interpolationmode none
attr recordingmode count
attr source packetReceivedFromUpper
attr title "packets received from higher layer, count"
scalar VPNBlockNetwork.client.lo[0].lo rcvdPkFromHl:sum(packetBytes) 0
attr interpolationmode none
attr recordingmode sum(packetBytes)
attr source packetReceivedFromUpper
attr title "packets received from higher layer, sum(packetBytes)"
scalar VPNBlockNetwork.client.lo[0].lo passedUpPk:count 0
attr interpolationmode none
attr recordingmode count
attr source packetSentToUpper
attr title "packets passed to higher layer, count"
scalar VPNBlockNetwork.client.lo[0].lo passedUpPk:sum(packetBytes) 0
attr interpolationmode none
attr recordingmode sum(packetBytes)
attr source packetSentToUpper
attr title "packets passed to higher layer, sum(packetBytes)"
par VPNBlockNetwork.client.lo[0] typename "\"inet.linklayer.loopback.LoopbackInterface\""
par VPNBlockNetwork.client.lo[0] displayStringTextFormat "\"%a (%i)\\n%m\""
par VPNBlockNetwork.client.lo[0] recordPcap false
par VPNBlockNetwork.client.lo[0] numPcapRecorders 0
par VPNBlockNetwork.client.lo[0] interfaceTableModule "\"VPNBlockNetwork.client.interfaceTable\""
scalar VPNBlockNetwork.client.lo[0] packetDropInterfaceDown:count 0
attr interpolationmode none
attr recordingmode count
attr source packetDropReasonIsInterfaceDown(packetDropped)
attr title "packet drops: interface down, count"
scalar VPNBlockNetwork.client.lo[0] packetDropInterfaceDown:sum(packetBytes) 0
attr interpolationmode none
attr recordingmode sum(packetBytes)
attr source packetDropReasonIsInterfaceDown(packetDropped)
attr title "packet drops: interface down, sum(packetBytes)"
scalar VPNBlockNetwork.client.lo[0] packetDropNoCarrier:count 0
attr interpolationmode none
attr recordingmode count
attr source packetDropReasonIsNoCarrier(packetDropped)
attr title "packet drops: no carrier, count"
scalar VPNBlockNetwork.client.lo[0] packetDropNoCarrier:sum(packetBytes) 0
attr interpolationmode none
attr recordingmode sum(packetBytes)
attr source packetDropReasonIsNoCarrier(packetDropped)
attr title "packet drops: no carrier, sum(packetBytes)"
par VPNBlockNetwork.client.eth[0].mac.phys$o.channel typename "\"ned.IdealChannel\""
par VPNBlockNetwork.client.eth[0].phys$i.channel typename "\"ned.IdealChannel\""
par VPNBlockNetwork.client.eth[0].upperLayerIn.channel typename "\"ned.IdealChannel\""
par VPNBlockNetwork.client.eth[0].mac.upperLayerOut.channel typename "\"ned.IdealChannel\""
par VPNBlockNetwork.client.eth[0].queue typename "\"inet.linklayer.ethernet.common.EthernetQueue\""
par VPNBlockNetwork.client.eth[0].queue displayStringTextFormat "\"contains %p pk (%l) pushed %u\\npulled %o removed %r dropped %d\""
par VPNBlockNetwork.client.eth[0].queue packetCapacity 1000
par VPNBlockNetwork.client.eth[0].queue dataCapacity -1b
attr unit b
par VPNBlockNetwork.client.eth[0].queue dropperClass "\"inet::queueing::PacketAtCollectionEndDropper\""
par VPNBlockNetwork.client.eth[0].queue comparatorClass "\"inet::EthernetFrameTypeComparator\""
par VPNBlockNetwork.client.eth[0].queue bufferModule "\"\""
scalar VPNBlockNetwork.client.eth[0].queue queueLength:last 0
attr autoWarmupFilter false
attr interpolationmode sample-hold
attr recordingmode last
attr source "warmup(atomic(constant0(packetPushEnded) + count(packetPushStarted) - count(packetPulled) - count(packetRemoved) - count(packetDropped)))"
attr title "queue length, last"
attr unit pk
scalar VPNBlockNetwork.client.eth[0].queue queueLength:max 0
attr autoWarmupFilter false
attr interpolationmode sample-hold
attr recordingmode max
attr source "warmup(atomic(constant0(packetPushEnded) + count(packetPushStarted) - count(packetPulled) - count(packetRemoved) - count(packetDropped)))"
attr title "queue length, max"
attr unit pk
scalar VPNBlockNetwork.client.eth[0].queue queueLength:timeavg 0
attr autoWarmupFilter false
attr interpolationmode sample-hold
attr recordingmode timeavg
attr source "warmup(atomic(constant0(packetPushEnded) + count(packetPushStarted) - count(packetPulled) - count(packetRemoved) - count(packetDropped)))"
attr title "queue length, timeavg"
attr unit pk
scalar VPNBlockNetwork.client.eth[0].queue queueBitLength:last 0
attr autoWarmupFilter false
attr interpolationmode sample-hold
attr recordingmode last
attr source "warmup(atomic(constant0(packetPushEnded) + sum(packetLength(packetPushStarted)) - sum(packetLength(packetPulled)) - sum(packetLength(packetRemoved)) - sum(packetLength(packetDropped))))"
attr title "queue bit length, last"
attr unit b
scalar VPNBlockNetwork.client.eth[0].queue queueBitLength:max 0
attr autoWarmupFilter false
attr interpolationmode sample-hold
attr recordingmode max
attr source "warmup(atomic(constant0(packetPushEnded) + sum(packetLength(packetPushStarted)) - sum(packetLength(packetPulled)) - sum(packetLength(packetRemoved)) - sum(packetLength(packetDropped))))"
attr title "queue bit length, max"
attr unit b
scalar VPNBlockNetwork.client.eth[0].queue queueBitLength:timeavg 0
attr autoWarmupFilter false
attr interpolationmode sample-hold
attr recordingmode timeavg
attr source "warmup(atomic(constant0(packetPushEnded) + sum(packetLength(packetPushStarted)) - sum(packetLength(packetPulled)) - sum(packetLength(packetRemoved)) - sum(packetLength(packetDropped))))"
attr title "queue bit length, timeavg"
attr unit b
statistic VPNBlockNetwork.client.eth[0].queue queueingTime:histogram
field count 225
field mean 0
field stddev 0
field min 0
field max 0
field sum 0
field sqrsum 0
attr interpolationmode none
attr recordingmode histogram
attr source queueingTime(packetPulled)
attr title "queueing times"
attr unit s
bin	-inf	0
bin	-0.5	0
bin	-0.48	0
bin	-0.46	0
bin	-0.44	0
bin	-0.42	0
bin	-0.4	0
bin	-0.38	0
bin	-0.36	0
bin	-0.34	0
bin	-0.32	0
bin	-0.3	0
bin	-0.28	0
bin	-0.26	0
bin	-0.24	0
bin	-0.22	0
bin	-0.2	0
bin	-0.18	0
bin	-0.16	0
bin	-0.14	0
bin	-0.12	0
bin	-0.1	0
bin	-0.08	0
bin	-0.06	0
bin	-0.04	0
bin	-0.02	0
bin	0	225
bin	0.02	0
bin	0.04	0
bin	0.06	0
bin	0.08	0
bin	0.1	0
bin	0.12	0
bin	0.14	0
bin	0.16	0
bin	0.18	0
bin	0.2	0
bin	0.22	0
bin	0.24	0
bin	0.26	0
bin	0.28	0
bin	0.3	0
bin	0.32	0
bin	0.34	0
bin	0.36	0
bin	0.38	0
bin	0.4	0
bin	0.42	0
bin	0.44	0
bin	0.46	0
bin	0.48	0
bin	0.5	0
scalar VPNBlockNetwork.client.eth[0].queue outgoingPackets:count 225
attr recordingmode count
attr source packetPulled
attr title "outgoing packets, count"
attr unit pk
scalar VPNBlockNetwork.client.eth[0].queue outgoingPacketLengths:sum 2233200
attr interpolationmode none
attr recordingmode sum
attr source packetLength(packetPulled)
attr title "outgoing packet lengths, sum"
attr unit b
statistic VPNBlockNetwork.client.eth[0].queue outgoingPacketLengths:histogram
field count 225
field mean 9925.3333333333
field stddev 640
field min 368
field max 9968
field sum 2233200
field sqrsum 22257004800
attr interpolationmode none
attr recordingmode histogram
attr source packetLength(packetPulled)
attr title "outgoing packet lengths"
attr unit b
bin	-inf	0
bin	0	0
bin	200	1
bin	400	0
bin	600	0
bin	800	0
bin	1000	0
bin	1200	0
bin	1400	0
bin	1600	0
bin	1800	0
bin	2000	0
bin	2200	0
bin	2400	0
bin	2600	0
bin	2800	0
bin	3000	0
bin	3200	0
bin	3400	0
bin	3600	0
bin	3800	0
bin	4000	0
bin	4200	0
bin	4400	0
bin	4600	0
bin	4800	0
bin	5000	0
bin	5200	0
bin	5400	0
bin	5600	0
bin	5800	0
bin	6000	0
bin	6200	0
bin	6400	0
bin	6600	0
bin	6800	0
bin	7000	0
bin	7200	0
bin	7400	0
bin	7600	0
bin	7800	0
bin	8000	0
bin	8200	0
bin	8400	0
bin	8600	0
bin	8800	0
bin	9000	0
bin	9200	0
bin	9400	0
bin	9600	0
bin	9800	224
bin	10000	0
bin	10200	0
bin	10400	0
bin	10600	0
bin	10800	0
bin	11000	0
bin	11200	0
bin	11400	0
bin	11600	0
bin	11800	0
bin	12000	0
bin	12200	0
bin	12400	0
statistic VPNBlockNetwork.client.eth[0].queue flowQueueingTime:histogram
field count 0
field mean nan
field stddev nan
field min nan
field max nan
field sum 0
field sqrsum 0
attr interpolationmode none
attr recordingmode histogram
attr source queueingTime(demuxFlow(packetPulled))
attr title "flow queueing times"
attr unit s
bin	-inf	0
bin	0	0
bin	1	0
scalar VPNBlockNetwork.client.eth[0].queue incomingPackets:count 225
attr recordingmode count
attr source packetPushStarted
attr title "incoming packets, count"
attr unit pk
scalar VPNBlockNetwork.client.eth[0].queue incomingPacketLengths:sum 2233200
attr interpolationmode none
attr recordingmode sum
attr source packetLength(packetPushStarted)
attr title "incoming packet lengths, sum"
attr unit b
statistic VPNBlockNetwork.client.eth[0].queue incomingPacketLengths:histogram
field count 225
field mean 9925.3333333333
field stddev 640
field min 368
field max 9968
field sum 2233200
field sqrsum 22257004800
attr interpolationmode none
attr recordingmode histogram
attr source packetLength(packetPushStarted)
attr title "incoming packet lengths"
attr unit b
bin	-inf	0
bin	0	0
bin	200	1
bin	400	0
bin	600	0
bin	800	0
bin	1000	0
bin	1200	0
bin	1400	0
bin	1600	0
bin	1800	0
bin	2000	0
bin	2200	0
bin	2400	0
bin	2600	0
bin	2800	0
bin	3000	0
bin	3200	0
bin	3400	0
bin	3600	0
bin	3800	0
bin	4000	0
bin	4200	0
bin	4400	0
bin	4600	0
bin	4800	0
bin	5000	0
bin	5200	0
bin	5400	0
bin	5600	0
bin	5800	0
bin	6000	0
bin	6200	0
bin	6400	0
bin	6600	0
bin	6800	0
bin	7000	0
bin	7200	0
bin	7400	0
bin	7600	0
bin	7800	0
bin	8000	0
bin	8200	0
bin	8400	0
bin	8600	0
bin	8800	0
bin	9000	0
bin	9200	0
bin	9400	0
bin	9600	0
bin	9800	224
bin	10000	0
bin	10200	0
bin	10400	0
bin	10600	0
bin	10800	0
bin	11000	0
bin	11200	0
bin	11400	0
bin	11600	0
bin	11800	0
bin	12000	0
bin	12200	0
bin	12400	0
scalar VPNBlockNetwork.client.eth[0].queue droppedPacketsQueueOverflow:count 0
attr interpolationmode none
attr recordingmode count
attr source packetDropReasonIsQueueOverflow(packetDropped)
attr title "dropped packets: queue overflow, count"
attr unit pk
scalar VPNBlockNetwork.client.eth[0].queue droppedPacketLengthsQueueOverflow:sum 0
attr interpolationmode none
attr recordingmode sum
attr source packetLength(packetDropReasonIsQueueOverflow(packetDropped))
attr title "dropped packet lengths: queue overflow, sum"
attr unit b
par VPNBlockNetwork.client.eth[0].mac typename "\"inet.linklayer.ethernet.basic.EthernetMac\""
par VPNBlockNetwork.client.eth[0].mac interfaceTableModule "\"VPNBlockNetwork.client.interfaceTable\""
par VPNBlockNetwork.client.eth[0].mac displayStringTextFormat "\"rate: %b\\nsent: %s, rcvd: %r\\nqueue: %q, drop: %d\""
par VPNBlockNetwork.client.eth[0].mac sendRawBytes false
par VPNBlockNetwork.client.eth[0].mac promiscuous false
par VPNBlockNetwork.client.eth[0].mac duplexMode true
par VPNBlockNetwork.client.eth[0].mac mtu 1500B
attr unit B
par VPNBlockNetwork.client.eth[0].mac fcsMode "\"declared\""
attr enum declared,computed
par VPNBlockNetwork.client.eth[0].mac stopOperationExtraTime -1s
attr unit s
par VPNBlockNetwork.client.eth[0].mac stopOperationTimeout 2s
attr unit s
scalar VPNBlockNetwork.client.eth[0].mac "simulated time" 100
scalar VPNBlockNetwork.client.eth[0].mac full-duplex 1
scalar VPNBlockNetwork.client.eth[0].mac "frames/sec sent" 2.25
scalar VPNBlockNetwork.client.eth[0].mac "frames/sec rcvd" 2.25
scalar VPNBlockNetwork.client.eth[0].mac "bits/sec sent" 22333.44
scalar VPNBlockNetwork.client.eth[0].mac "bits/sec rcvd" 1331.2
scalar VPNBlockNetwork.client.eth[0].mac "rx channel idle (%)" 99.9985248
scalar VPNBlockNetwork.client.eth[0].mac "rx channel utilization (%)" 0.0014752
scalar VPNBlockNetwork.client.eth[0].mac txPk:count 225
attr interpolationmode none
attr recordingmode count
attr source packetSentToLower
attr title "packets transmitted, count"
scalar VPNBlockNetwork.client.eth[0].mac txPk:sum(packetBytes) 279168
attr interpolationmode none
attr recordingmode sum(packetBytes)
attr source packetSentToLower
attr title "packets transmitted, sum(packetBytes)"
scalar VPNBlockNetwork.client.eth[0].mac packetReceivedFromUpper:count 225
attr interpolationmode none
attr recordingmode count
attr source packetReceivedFromUpper
attr title "packet bytes from higher layer, count"
scalar VPNBlockNetwork.client.eth[0].mac packetReceivedFromUpper:sum(packetBytes) 279150
attr interpolationmode none
attr recordingmode sum(packetBytes)
attr source packetReceivedFromUpper
attr title "packet bytes from higher layer, sum(packetBytes)"
scalar VPNBlockNetwork.client.eth[0].mac passedUpPk:count 225
attr interpolationmode none
attr recordingmode count
attr source packetSentToUpper
attr title "packets passed to higher layer, count"
scalar VPNBlockNetwork.client.eth[0].mac passedUpPk:sum(packetBytes) 16640
attr interpolationmode none
attr recordingmode sum(packetBytes)
attr source packetSentToUpper
attr title "packets passed to higher layer, sum(packetBytes)"
scalar VPNBlockNetwork.client.eth[0].mac packetDropIncorrectlyReceived:count 0
attr interpolationmode none
attr recordingmode count
attr source packetDropReasonIsIncorrectlyReceived(packetDropped)
attr title "packet drop: incorrectly received, count"
scalar VPNBlockNetwork.client.eth[0].mac packetDropIncorrectlyReceived:sum(packetBytes) 0
attr interpolationmode none
attr recordingmode sum(packetBytes)
attr source packetDropReasonIsIncorrectlyReceived(packetDropped)
attr title "packet drop: incorrectly received, sum(packetBytes)"
scalar VPNBlockNetwork.client.eth[0].mac packetDropInterfaceDown:count 0
attr interpolationmode none
attr recordingmode count
attr source packetDropReasonIsInterfaceDown(packetDropped)
attr title "packet drop: interface down, count"
scalar VPNBlockNetwork.client.eth[0].mac packetDropInterfaceDown:sum(packetBytes) 0
attr interpolationmode none
attr recordingmode sum(packetBytes)
attr source packetDropReasonIsInterfaceDown(packetDropped)
attr title "packet drop: interface down, sum(packetBytes)"
scalar VPNBlockNetwork.client.eth[0].mac packetDropNotAddressedToUs:count 0
attr interpolationmode none
attr recordingmode count
attr source packetDropReasonIsNotAddressedToUs(packetDropped)
attr title "packet drop: not addressed to us, count"
scalar VPNBlockNetwork.client.eth[0].mac packetDropNotAddressedToUs:sum(packetBytes) 0
attr interpolationmode none
attr recordingmode sum(packetBytes)
attr source packetDropReasonIsNotAddressedToUs(packetDropped)
attr title "packet drop: not addressed to us, sum(packetBytes)"
scalar VPNBlockNetwork.client.eth[0].mac rxPausePkUnits:count 0
attr interpolationmode none
attr recordingmode count
attr title "pause units received, count"
scalar VPNBlockNetwork.client.eth[0].mac rxPausePkUnits:sum 0
attr interpolationmode none
attr recordingmode sum
attr title "pause units received, sum"
scalar VPNBlockNetwork.client.eth[0].mac txPausePkUnits:count 0
attr interpolationmode none
attr recordingmode count
attr title "pause units sent, count"
scalar VPNBlockNetwork.client.eth[0].mac txPausePkUnits:sum 0
attr interpolationmode none
attr recordingmode sum
attr title "pause units sent, sum"
scalar VPNBlockNetwork.client.eth[0].mac rxPkOk:count 225
attr interpolationmode none
attr recordingmode count
attr source rxPkOk
attr title "packets received OK, count"
scalar VPNBlockNetwork.client.eth[0].mac rxPkOk:sum(packetBytes) 16640
attr interpolationmode none
attr recordingmode sum(packetBytes)
attr source rxPkOk
attr title "packets received OK, sum(packetBytes)"
par VPNBlockNetwork.client.eth[0] typename "\"inet.linklayer.ethernet.EthernetInterface\""
par VPNBlockNetwork.client.eth[0] displayStringTextFormat "\"%a (%i)\\n%m\""
par VPNBlockNetwork.client.eth[0] recordPcap false
par VPNBlockNetwork.client.eth[0] numPcapRecorders 0
par VPNBlockNetwork.client.eth[0] interfaceTableModule "\"VPNBlockNetwork.client.interfaceTable\""
par VPNBlockNetwork.client.eth[0] protocol "\"ethernetmac\""
par VPNBlockNetwork.client.eth[0] address "\"0A-AA-00-00-00-01\""
attr mutable ""
par VPNBlockNetwork.client.eth[0] duplexMode true
par VPNBlockNetwork.client.eth[0] csmacdSupport false
par VPNBlockNetwork.client.eth[0] bitrate 1e+08bps
attr unit bps
par VPNBlockNetwork.client.eth[0] fcsMode "\"declared\""
attr enum declared,computed
scalar VPNBlockNetwork.client.eth[0] packetDropInterfaceDown:count 0
attr interpolationmode none
attr recordingmode count
attr source packetDropReasonIsInterfaceDown(packetDropped)
attr title "packet drops: interface down, count"
scalar VPNBlockNetwork.client.eth[0] packetDropInterfaceDown:sum(packetBytes) 0
attr interpolationmode none
attr recordingmode sum(packetBytes)
attr source packetDropReasonIsInterfaceDown(packetDropped)
attr title "packet drops: interface down, sum(packetBytes)"
scalar VPNBlockNetwork.client.eth[0] packetDropNoCarrier:count 0
attr interpolationmode none
attr recordingmode count
attr source packetDropReasonIsNoCarrier(packetDropped)
attr title "packet drops: no carrier, count"
scalar VPNBlockNetwork.client.eth[0] packetDropNoCarrier:sum(packetBytes) 0
attr interpolationmode none
attr recordingmode sum(packetBytes)
attr source packetDropReasonIsNoCarrier(packetDropped)
attr title "packet drops: no carrier, sum(packetBytes)"
par VPNBlockNetwork.client.ipv4.transportIn.channel typename "\"ned.IdealChannel\""
par VPNBlockNetwork.client.ipv4.up.out[0].channel typename "\"ned.IdealChannel\""
par VPNBlockNetwork.client.ipv4.lp.out[2].channel typename "\"ned.IdealChannel\""
par VPNBlockNetwork.client.ipv4.ifIn.channel typename "\"ned.IdealChannel\""
par VPNBlockNetwork.client.ipv4.configurator typename "\"inet.networklayer.configurator.ipv4.Ipv4NodeConfigurator\""
par VPNBlockNetwork.client.ipv4.configurator interfaceTableModule "\"VPNBlockNetwork.client.interfaceTable\""
par VPNBlockNetwork.client.ipv4.configurator routingTableModule "\"VPNBlockNetwork.client.ipv4.routingTable\""
par VPNBlockNetwork.client.ipv4.configurator networkConfiguratorModule "\"configurator\""
par VPNBlockNetwork.client.ipv4.configurator configureRoutingTable true
par VPNBlockNetwork.client.ipv4.routingTable typename "\"inet.networklayer.ipv4.Ipv4RoutingTable\""
par VPNBlockNetwork.client.ipv4.routingTable interfaceTableModule "\"VPNBlockNetwork.client.interfaceTable\""
par VPNBlockNetwork.client.ipv4.routingTable routerId "\"auto\""
par VPNBlockNetwork.client.ipv4.routingTable netmaskRoutes "\"*\""
par VPNBlockNetwork.client.ipv4.routingTable forwarding false
par VPNBlockNetwork.client.ipv4.routingTable multicastForwarding false
par VPNBlockNetwork.client.ipv4.routingTable useAdminDist false
par VPNBlockNetwork.client.ipv4.routingTable routingFile "\"\""
par VPNBlockNetwork.client.ipv4.natTable typename "\"inet.networklayer.ipv4.Ipv4NatTable\""
par VPNBlockNetwork.client.ipv4.natTable networkProtocolModule "\"^.ip\""
par VPNBlockNetwork.client.ipv4.natTable config "<config/> at content:1"
par VPNBlockNetwork.client.ipv4.up typename "\"inet.common.MessageDispatcher\""
par VPNBlockNetwork.client.ipv4.up displayStringTextFormat "\"processed %p pk (%l)\""
par VPNBlockNetwork.client.ipv4.up forwardServiceRegistration true
par VPNBlockNetwork.client.ipv4.up forwardProtocolRegistration true
par VPNBlockNetwork.client.ipv4.igmp typename "\"inet.networklayer.ipv4.Igmpv2\""
par VPNBlockNetwork.client.ipv4.igmp interfaceTableModule "\"VPNBlockNetwork.client.interfaceTable\""
par VPNBlockNetwork.client.ipv4.igmp routingTableModule "\"VPNBlockNetwork.client.ipv4.routingTable\""
par VPNBlockNetwork.client.ipv4.igmp crcMode "\"declared\""
attr enum declared,computed
par VPNBlockNetwork.client.ipv4.igmp enabled true
par VPNBlockNetwork.client.ipv4.igmp robustnessVariable 2
par VPNBlockNetwork.client.ipv4.igmp queryInterval 125s
attr unit s
par VPNBlockNetwork.client.ipv4.igmp queryResponseInterval 10s
attr unit s
par VPNBlockNetwork.client.ipv4.igmp groupMembershipInterval 260s
attr unit s
par VPNBlockNetwork.client.ipv4.igmp otherQuerierPresentInterval 255s
attr unit s
par VPNBlockNetwork.client.ipv4.igmp startupQueryInterval 31.25s
attr unit s
par VPNBlockNetwork.client.ipv4.igmp startupQueryCount 2
par VPNBlockNetwork.client.ipv4.igmp lastMemberQueryInterval 1s
attr unit s
par VPNBlockNetwork.client.ipv4.igmp lastMemberQueryCount 2
par VPNBlockNetwork.client.ipv4.igmp unsolicitedReportInterval 10s
attr unit s
par VPNBlockNetwork.client.ipv4.icmp typename "\"inet.networklayer.ipv4.Icmp\""
par VPNBlockNetwork.client.ipv4.icmp interfaceTableModule "\"VPNBlockNetwork.client.interfaceTable\""
par VPNBlockNetwork.client.ipv4.icmp routingTableModule "\"VPNBlockNetwork.client.ipv4.routingTable\""
par VPNBlockNetwork.client.ipv4.icmp crcMode "\"declared\""
attr enum declared,computed
attr mutable ""
par VPNBlockNetwork.client.ipv4.icmp quoteLength 8B
attr mutable ""
attr unit B
par VPNBlockNetwork.client.ipv4.mp typename "\"inet.common.MessageDispatcher\""
par VPNBlockNetwork.client.ipv4.mp displayStringTextFormat "\"processed %p pk (%l)\""
par VPNBlockNetwork.client.ipv4.mp forwardServiceRegistration true
par VPNBlockNetwork.client.ipv4.mp forwardProtocolRegistration true
par VPNBlockNetwork.client.ipv4.ip typename "\"inet.networklayer.ipv4.Ipv4\""
par VPNBlockNetwork.client.ipv4.ip interfaceTableModule "\"VPNBlockNetwork.client.interfaceTable\""
par VPNBlockNetwork.client.ipv4.ip routingTableModule "\"VPNBlockNetwork.client.ipv4.routingTable\""
par VPNBlockNetwork.client.ipv4.ip arpModule "\"VPNBlockNetwork.client.ipv4.arp\""
par VPNBlockNetwork.client.ipv4.ip icmpModule "\"VPNBlockNetwork.client.ipv4.icmp\""
par VPNBlockNetwork.client.ipv4.ip crcMode "\"declared\""
attr enum declared,computed
par VPNBlockNetwork.client.ipv4.ip timeToLive 32
par VPNBlockNetwork.client.ipv4.ip multicastTimeToLive 32
par VPNBlockNetwork.client.ipv4.ip fragmentTimeout 60s
attr unit s
par VPNBlockNetwork.client.ipv4.ip limitedBroadcast false
par VPNBlockNetwork.client.ipv4.ip directBroadcastInterfaces "\"\""
scalar VPNBlockNetwork.client.ipv4.ip packetDropAddressResolutionFailed:count 0
attr interpolationmode none
attr recordingmode count
attr source packetDropReasonIsAddressResolutionFailed(packetDropped)
attr title "packet drop: address resolution failed, count"
scalar VPNBlockNetwork.client.ipv4.ip packetDropAddressResolutionFailed:sum(packetBytes) 0
attr interpolationmode none
attr recordingmode sum(packetBytes)
attr source packetDropReasonIsAddressResolutionFailed(packetDropped)
attr title "packet drop: address resolution failed, sum(packetBytes)"
scalar VPNBlockNetwork.client.ipv4.ip packetDropHopLimitReached:count 0
attr interpolationmode none
attr recordingmode count
attr source packetDropReasonIsHopLimitReached(packetDropped)
attr title "packet drop: hop limit reached, count"
scalar VPNBlockNetwork.client.ipv4.ip packetDropHopLimitReached:sum(packetBytes) 0
attr interpolationmode none
attr recordingmode sum(packetBytes)
attr source packetDropReasonIsHopLimitReached(packetDropped)
attr title "packet drop: hop limit reached, sum(packetBytes)"
scalar VPNBlockNetwork.client.ipv4.ip packetDropForwardingDisabled:count 0
attr interpolationmode none
attr recordingmode count
attr source packetDropReasonIsForwardingDisabled(packetDropped)
attr title "packet drop: forwarding disabled, count"
scalar VPNBlockNetwork.client.ipv4.ip packetDropForwardingDisabled:sum(packetBytes) 0
attr interpolationmode none
attr recordingmode sum(packetBytes)
attr source packetDropReasonIsForwardingDisabled(packetDropped)
attr title "packet drop: forwarding disabled, sum(packetBytes)"
scalar VPNBlockNetwork.client.ipv4.ip packetDropNoInterfaceFound:count 0
attr interpolationmode none
attr recordingmode count
attr source packetDropReasonIsNoInterfaceFound(packetDropped)
attr title "packet drop: no interface found, count"
scalar VPNBlockNetwork.client.ipv4.ip packetDropNoInterfaceFound:sum(packetBytes) 0
attr interpolationmode none
attr recordingmode sum(packetBytes)
attr source packetDropReasonIsNoInterfaceFound(packetDropped)
attr title "packet drop: no interface found, sum(packetBytes)"
scalar VPNBlockNetwork.client.ipv4.ip packetDropNoRouteFound:count 0
attr interpolationmode none
attr recordingmode count
attr source packetDropReasonIsNoRouteFound(packetDropped)
attr title "packet drop: no route found, count"
scalar VPNBlockNetwork.client.ipv4.ip packetDropNoRouteFound:sum(packetBytes) 0
attr interpolationmode none
attr recordingmode sum(packetBytes)
attr source packetDropReasonIsNoRouteFound(packetDropped)
attr title "packet drop: no route found, sum(packetBytes)"
scalar VPNBlockNetwork.client.ipv4.ip packetDropUndefined:count 0
attr interpolationmode none
attr recordingmode count
attr source packetDropReasonIsUndefined(packetDropped)
attr title "packet drop: undefined, count"
scalar VPNBlockNetwork.client.ipv4.ip packetDropUndefined:sum(packetBytes) 0
attr interpolationmode none
attr recordingmode sum(packetBytes)
attr source packetDropReasonIsUndefined(packetDropped)
attr title "packet drop: undefined, sum(packetBytes)"
par VPNBlockNetwork.client.ipv4.arp typename "\"inet.networklayer.arp.ipv4.Arp\""
par VPNBlockNetwork.client.ipv4.arp interfaceTableModule "\"VPNBlockNetwork.client.interfaceTable\""
par VPNBlockNetwork.client.ipv4.arp routingTableModule "\"VPNBlockNetwork.client.ipv4.routingTable\""
par VPNBlockNetwork.client.ipv4.arp retryTimeout 1s
attr unit s
par VPNBlockNetwork.client.ipv4.arp retryCount 3
par VPNBlockNetwork.client.ipv4.arp cacheTimeout 120s
attr unit s
par VPNBlockNetwork.client.ipv4.arp proxyArpInterfaces "\"\""
scalar VPNBlockNetwork.client.ipv4.arp arpReplySent:count 0
attr recordingmode count
attr source arpReplySent
attr title "ARP replies sent, count"
scalar VPNBlockNetwork.client.ipv4.arp arpReplySent:sum(packetBytes) 0
attr recordingmode sum(packetBytes)
attr source arpReplySent
attr title "ARP replies sent, sum(packetBytes)"
scalar VPNBlockNetwork.client.ipv4.arp arpRequestSent:count 1
attr recordingmode count
attr source arpRequestSent
attr title "ARP request sent, count"
scalar VPNBlockNetwork.client.ipv4.arp arpRequestSent:sum(packetBytes) 28
attr recordingmode sum(packetBytes)
attr source arpRequestSent
attr title "ARP request sent, sum(packetBytes)"
scalar VPNBlockNetwork.client.ipv4.arp arpResolutionFailed:count 0
attr recordingmode count
attr title "ARP failed resolutions, count"
scalar VPNBlockNetwork.client.ipv4.arp arpResolutionCompleted:count 1
attr recordingmode count
attr title "ARP completed resolutions, count"
scalar VPNBlockNetwork.client.ipv4.arp arpResolutionInitiated:count 1
attr recordingmode count
attr title "ARP initiated resolutions, count"
par VPNBlockNetwork.client.ipv4.lp typename "\"inet.common.MessageDispatcher\""
par VPNBlockNetwork.client.ipv4.lp displayStringTextFormat "\"processed %p pk (%l)\""
par VPNBlockNetwork.client.ipv4.lp forwardServiceRegistration true
par VPNBlockNetwork.client.ipv4.lp forwardProtocolRegistration true
par VPNBlockNetwork.client.ipv4 typename "\"inet.networklayer.ipv4.Ipv4NetworkLayer\""
par VPNBlockNetwork.client.ipv4 forwarding false
par VPNBlockNetwork.client.ipv4 multicastForwarding false
par VPNBlockNetwork.client.ipv4 interfaceTableModule "\"VPNBlockNetwork.client.interfaceTable\""
par VPNBlockNetwork.client.ipv4 displayStringTextFormat "\"%i\""
par VPNBlockNetwork.client.nl typename "\"inet.common.MessageDispatcher\""
par VPNBlockNetwork.client.nl displayStringTextFormat "\"processed %p pk (%l)\""
par VPNBlockNetwork.client.nl forwardServiceRegistration true
par VPNBlockNetwork.client.nl forwardProtocolRegistration true
par VPNBlockNetwork.client.udp typename "\"inet.transportlayer.udp.Udp\""
par VPNBlockNetwork.client.udp interfaceTableModule "\"VPNBlockNetwork.client.interfaceTable\""
par VPNBlockNetwork.client.udp icmpModule "\"^.ipv4.icmp\""
par VPNBlockNetwork.client.udp icmpv6Module "\"^.ipv6.icmpv6\""
par VPNBlockNetwork.client.udp crcMode "\"declared\""
attr enum disabled,declared,computed
par VPNBlockNetwork.client.udp defaultMulticastLoop true
scalar VPNBlockNetwork.client.udp packetReceived:count 0
attr interpolationmode none
attr recordingmode count
attr source packetReceived
attr title "packets received, count"
scalar VPNBlockNetwork.client.udp packetReceived:sum(packetBytes) 0
attr interpolationmode none
attr recordingmode sum(packetBytes)
attr source packetReceived
attr title "packets received, sum(packetBytes)"
scalar VPNBlockNetwork.client.udp packetSent:count 224
attr interpolationmode none
attr recordingmode count
attr source packetSent
attr title "packets sent, count"
scalar VPNBlockNetwork.client.udp packetSent:sum(packetBytes) 270592
attr interpolationmode none
attr recordingmode sum(packetBytes)
attr source packetSent
attr title "packets sent, sum(packetBytes)"
scalar VPNBlockNetwork.client.udp passedUpPk:count 0
attr interpolationmode none
attr recordingmode count
attr source packetSentToUpper
attr title "packets passed up, count"
scalar VPNBlockNetwork.client.udp droppedPkWrongPort:count 0
attr interpolationmode none
attr recordingmode count
attr source packetDropReasonIsNoPortFound(packetDropped)
attr title "packets dropped (wrong port), count"
scalar VPNBlockNetwork.client.udp droppedPkBadChecksum:count 0
attr interpolationmode none
attr recordingmode count
attr source packetDropReasonIsIncorrectlyReceived(packetDropped)
attr title "packets dropped (checksum error), count"
par VPNBlockNetwork.client.tcp typename "\"inet.transportlayer.tcp.Tcp\""
par VPNBlockNetwork.client.tcp crcMode "\"declared\""
attr enum declared,computed
par VPNBlockNetwork.client.tcp advertisedWindow 7504
par VPNBlockNetwork.client.tcp delayedAcksEnabled false
par VPNBlockNetwork.client.tcp nagleEnabled true
par VPNBlockNetwork.client.tcp limitedTransmitEnabled false
par VPNBlockNetwork.client.tcp increasedIWEnabled false
par VPNBlockNetwork.client.tcp sackSupport false
par VPNBlockNetwork.client.tcp windowScalingSupport false
par VPNBlockNetwork.client.tcp windowScalingFactor -1
par VPNBlockNetwork.client.tcp timestampSupport false
par VPNBlockNetwork.client.tcp mss 536
par VPNBlockNetwork.client.tcp msl 120s
attr unit s
par VPNBlockNetwork.client.tcp tcpAlgorithmClass "\"TcpReno\""
par VPNBlockNetwork.client.tcp useDataNotification false
par VPNBlockNetwork.client.tcp dupthresh 3
par VPNBlockNetwork.client.tcp initialSsthresh 4294967295
par VPNBlockNetwork.client.tcp stopOperationExtraTime 0s
attr unit s
par VPNBlockNetwork.client.tcp stopOperationTimeout 2s
attr unit s
par VPNBlockNetwork.client.tcp ecnWillingness false
par VPNBlockNetwork.client.tcp dctcpGamma 0.0625
par VPNBlockNetwork.client.tn typename "\"inet.common.MessageDispatcher\""
par VPNBlockNetwork.client.tn displayStringTextFormat "\"processed %p pk (%l)\""
par VPNBlockNetwork.client.tn forwardServiceRegistration true
par VPNBlockNetwork.client.tn forwardProtocolRegistration true
par VPNBlockNetwork.client.app[0] typename "\"vpnblocking.VPNTrafficApp\""
par VPNBlockNetwork.client.app[0] localPort 5000
par VPNBlockNetwork.client.app[0] destPort 5000
par VPNBlockNetwork.client.app[0] destAddresses "\"blockedServer\""
par VPNBlockNetwork.client.app[0] startTime 1s
attr unit s
par VPNBlockNetwork.client.app[0] stopTime 90s
attr unit s
par VPNBlockNetwork.client.app[0] sendInterval 0.397937s
attr unit s
par VPNBlockNetwork.client.app[0] packetLength 1200B
attr unit B
par VPNBlockNetwork.client.app[0] simulateIPsec true
scalar VPNBlockNetwork.client.app[0] packetsSent 224
par VPNBlockNetwork.client.at typename "\"inet.common.MessageDispatcher\""
par VPNBlockNetwork.client.at displayStringTextFormat "\"processed %p pk (%l)\""
par VPNBlockNetwork.client.at forwardServiceRegistration true
par VPNBlockNetwork.client.at forwardProtocolRegistration true
par VPNBlockNetwork.client typename "\"inet.node.inet.StandardHost\""
par VPNBlockNetwork.client hasStatus false
par VPNBlockNetwork.client osgModel "\"\""
par VPNBlockNetwork.client osgModelColor "\"\""
par VPNBlockNetwork.client canvasImage "\"\""
par VPNBlockNetwork.client canvasImageColor "\"\""
par VPNBlockNetwork.client recordPcap false
par VPNBlockNetwork.client numPcapRecorders 0
par VPNBlockNetwork.client numLoInterfaces 1
par VPNBlockNetwork.client numWlanInterfaces 0
par VPNBlockNetwork.client numEthInterfaces 0
par VPNBlockNetwork.client numPppInterfaces 0
par VPNBlockNetwork.client numTunInterfaces 0
par VPNBlockNetwork.client numVirtInterfaces 0
par VPNBlockNetwork.client fcsMode "\"declared\""
attr enum declared,computed
par VPNBlockNetwork.client hasIpv4 true
par VPNBlockNetwork.client hasIpv6 false
par VPNBlockNetwork.client hasGn false
par VPNBlockNetwork.client forwarding false
par VPNBlockNetwork.client multicastForwarding false
par VPNBlockNetwork.client hasUdp true
par VPNBlockNetwork.client hasTcp true
par VPNBlockNetwork.client hasSctp false
par VPNBlockNetwork.client numApps 1
par VPNBlockNetwork.gateway.ethg$i[0].channel typename "\"ned.IdealChannel\""
par VPNBlockNetwork.gateway.eth[0].phys$o.channel typename "\"ned.IdealChannel\""
par VPNBlockNetwork.gateway.ethg$i[1].channel typename "\"ned.IdealChannel\""
par VPNBlockNetwork.gateway.eth[1].phys$o.channel typename "\"ned.IdealChannel\""
par VPNBlockNetwork.gateway.interfaceTable typename "\"inet.networklayer.common.InterfaceTable\""
par VPNBlockNetwork.gateway.interfaceTable displayAddresses false
par VPNBlockNetwork.gateway.cb typename "\"inet.common.MessageDispatcher\""
par VPNBlockNetwork.gateway.cb displayStringTextFormat "\"processed %p pk (%l)\""
par VPNBlockNetwork.gateway.cb forwardServiceRegistration true
par VPNBlockNetwork.gateway.cb forwardProtocolRegistration true
par VPNBlockNetwork.gateway.bl typename "\"inet.common.MessageDispatcher\""
par VPNBlockNetwork.gateway.bl displayStringTextFormat "\"processed %p pk (%l)\""
par VPNBlockNetwork.gateway.bl forwardServiceRegistration true
par VPNBlockNetwork.gateway.bl forwardProtocolRegistration true
par VPNBlockNetwork.gateway.ethernet typename "\"inet.linklayer.ethernet.basic.EthernetEncapsulation\""
par VPNBlockNetwork.gateway.ethernet registerProtocol true
par VPNBlockNetwork.gateway.ethernet interfaceTableModule "\"VPNBlockNetwork.gateway.interfaceTable\""
par VPNBlockNetwork.gateway.ethernet fcsMode "\"declared\""
attr enum declared,computed
par VPNBlockNetwork.gateway.ethernet stopOperationExtraTime -1s
attr unit s
par VPNBlockNetwork.gateway.ethernet stopOperationTimeout 2s
attr unit s
scalar VPNBlockNetwork.gateway.ethernet decapPk:count 450
attr interpolationmode none
attr recordingmode count
attr source decapPk
attr title "packets decapsulated, count"
scalar VPNBlockNetwork.gateway.ethernet decapPk:sum(packetBytes) 287708
attr interpolationmode none
attr recordingmode sum(packetBytes)
attr source decapPk
attr title "packets decapsulated, sum(packetBytes)"
scalar VPNBlockNetwork.gateway.ethernet encapPk:count 450
attr interpolationmode none
attr recordingmode count
attr source encapPk
attr title "packets encapsulated, count"
scalar VPNBlockNetwork.gateway.ethernet encapPk:sum(packetBytes) 287672
attr interpolationmode none
attr recordingmode sum(packetBytes)
attr source encapPk
attr title "packets encapsulated, sum(packetBytes)"
scalar VPNBlockNetwork.gateway.ethernet pauseSent:count 0
attr recordingmode count
attr title "pause sent, count"
scalar VPNBlockNetwork.gateway.ethernet pauseSent:sum 0
attr recordingmode sum
attr title "pause sent, sum"
par VPNBlockNetwork.gateway.li typename "\"inet.common.MessageDispatcher\""
par VPNBlockNetwork.gateway.li displayStringTextFormat "\"processed %p pk (%l)\""
par VPNBlockNetwork.gateway.li forwardServiceRegistration true
par VPNBlockNetwork.gateway.li forwardProtocolRegistration true
par VPNBlockNetwork.gateway.lo[0].upperLayerIn.channel typename "\"ned.IdealChannel\""
par VPNBlockNetwork.gateway.lo[0].lo.upperLayerOut.channel typename "\"ned.IdealChannel\""
par VPNBlockNetwork.gateway.lo[0].lo typename "\"inet.linklayer.loopback.Loopback\""
par VPNBlockNetwork.gateway.lo[0].lo interfaceTableModule "\"VPNBlockNetwork.gateway.interfaceTable\""
par VPNBlockNetwork.gateway.lo[0].lo mtu 4470B
attr unit B
scalar VPNBlockNetwork.gateway.lo[0].lo rcvdPkFromHl:count 0
attr interpolationmode none
attr recordingmode count
attr source packetReceivedFromUpper
attr title "packets received from higher layer, count"
scalar VPNBlockNetwork.gateway.lo[0].lo rcvdPkFromHl:sum(packetBytes) 0
attr interpolationmode none
attr recordingmode sum(packetBytes)
attr source packetReceivedFromUpper
attr title "packets received from higher layer, sum(packetBytes)"
scalar VPNBlockNetwork.gateway.lo[0].lo passedUpPk:count 0
attr interpolationmode none
attr recordingmode count
attr source packetSentToUpper
attr title "packets passed to higher layer, count"
scalar VPNBlockNetwork.gateway.lo[0].lo passedUpPk:sum(packetBytes) 0
attr interpolationmode none
attr recordingmode sum(packetBytes)
attr source packetSentToUpper
attr title "packets passed to higher layer, sum(packetBytes)"
par VPNBlockNetwork.gateway.lo[0] typename "\"inet.linklayer.loopback.LoopbackInterface\""
par VPNBlockNetwork.gateway.lo[0] displayStringTextFormat "\"%a (%i)\\n%m\""
par VPNBlockNetwork.gateway.lo[0] recordPcap false
par VPNBlockNetwork.gateway.lo[0] numPcapRecorders 0
par VPNBlockNetwork.gateway.lo[0] interfaceTableModule "\"VPNBlockNetwork.gateway.interfaceTable\""
scalar VPNBlockNetwork.gateway.lo[0] packetDropInterfaceDown:count 0
attr interpolationmode none
attr recordingmode count
attr source packetDropReasonIsInterfaceDown(packetDropped)
attr title "packet drops: interface down, count"
scalar VPNBlockNetwork.gateway.lo[0] packetDropInterfaceDown:sum(packetBytes) 0
attr interpolationmode none
attr recordingmode sum(packetBytes)
attr source packetDropReasonIsInterfaceDown(packetDropped)
attr title "packet drops: interface down, sum(packetBytes)"
scalar VPNBlockNetwork.gateway.lo[0] packetDropNoCarrier:count 0
attr interpolationmode none
attr recordingmode count
attr source packetDropReasonIsNoCarrier(packetDropped)
attr title "packet drops: no carrier, count"
scalar VPNBlockNetwork.gateway.lo[0] packetDropNoCarrier:sum(packetBytes) 0
attr interpolationmode none
attr recordingmode sum(packetBytes)
attr source packetDropReasonIsNoCarrier(packetDropped)
attr title "packet drops: no carrier, sum(packetBytes)"
par VPNBlockNetwork.gateway.eth[0].mac.phys$o.channel typename "\"ned.IdealChannel\""
par VPNBlockNetwork.gateway.eth[0].phys$i.channel typename "\"ned.IdealChannel\""
par VPNBlockNetwork.gateway.eth[0].upperLayerIn.channel typename "\"ned.IdealChannel\""
par VPNBlockNetwork.gateway.eth[0].mac.upperLayerOut.channel typename "\"ned.IdealChannel\""
par VPNBlockNetwork.gateway.eth[0].queue typename "\"inet.linklayer.ethernet.common.EthernetQueue\""
par VPNBlockNetwork.gateway.eth[0].queue displayStringTextFormat "\"contains %p pk (%l) pushed %u\\npulled %o removed %r dropped %d\""
par VPNBlockNetwork.gateway.eth[0].queue packetCapacity 1000
par VPNBlockNetwork.gateway.eth[0].queue dataCapacity -1b
attr unit b
par VPNBlockNetwork.gateway.eth[0].queue dropperClass "\"inet::queueing::PacketAtCollectionEndDropper\""
par VPNBlockNetwork.gateway.eth[0].queue comparatorClass "\"inet::EthernetFrameTypeComparator\""
par VPNBlockNetwork.gateway.eth[0].queue bufferModule "\"\""
scalar VPNBlockNetwork.gateway.eth[0].queue queueLength:last 0
attr autoWarmupFilter false
attr interpolationmode sample-hold
attr recordingmode last
attr source "warmup(atomic(constant0(packetPushEnded) + count(packetPushStarted) - count(packetPulled) - count(packetRemoved) - count(packetDropped)))"
attr title "queue length, last"
attr unit pk
scalar VPNBlockNetwork.gateway.eth[0].queue queueLength:max 0
attr autoWarmupFilter false
attr interpolationmode sample-hold
attr recordingmode max
attr source "warmup(atomic(constant0(packetPushEnded) + count(packetPushStarted) - count(packetPulled) - count(packetRemoved) - count(packetDropped)))"
attr title "queue length, max"
attr unit pk
scalar VPNBlockNetwork.gateway.eth[0].queue queueLength:timeavg 0
attr autoWarmupFilter false
attr interpolationmode sample-hold
attr recordingmode timeavg
attr source "warmup(atomic(constant0(packetPushEnded) + count(packetPushStarted) - count(packetPulled) - count(packetRemoved) - count(packetDropped)))"
attr title "queue length, timeavg"
attr unit pk
scalar VPNBlockNetwork.gateway.eth[0].queue queueBitLength:last 0
attr autoWarmupFilter false
attr interpolationmode sample-hold
attr recordingmode last
attr source "warmup(atomic(constant0(packetPushEnded) + sum(packetLength(packetPushStarted)) - sum(packetLength(packetPulled)) - sum(packetLength(packetRemoved)) - sum(packetLength(packetDropped))))"
attr title "queue bit length, last"
attr unit b
scalar VPNBlockNetwork.gateway.eth[0].queue queueBitLength:max 0
attr autoWarmupFilter false
attr interpolationmode sample-hold
attr recordingmode max
attr source "warmup(atomic(constant0(packetPushEnded) + sum(packetLength(packetPushStarted)) - sum(packetLength(packetPulled)) - sum(packetLength(packetRemoved)) - sum(packetLength(packetDropped))))"
attr title "queue bit length, max"
attr unit b
scalar VPNBlockNetwork.gateway.eth[0].queue queueBitLength:timeavg 0
attr autoWarmupFilter false
attr interpolationmode sample-hold
attr recordingmode timeavg
attr source "warmup(atomic(constant0(packetPushEnded) + sum(packetLength(packetPushStarted)) - sum(packetLength(packetPulled)) - sum(packetLength(packetRemoved)) - sum(packetLength(packetDropped))))"
attr title "queue bit length, timeavg"
attr unit b
statistic VPNBlockNetwork.gateway.eth[0].queue queueingTime:histogram
field count 225
field mean 0
field stddev 0
field min 0
field max 0
field sum 0
field sqrsum 0
attr interpolationmode none
attr recordingmode histogram
attr source queueingTime(packetPulled)
attr title "queueing times"
attr unit s
bin	-inf	0
bin	-0.5	0
bin	-0.48	0
bin	-0.46	0
bin	-0.44	0
bin	-0.42	0
bin	-0.4	0
bin	-0.38	0
bin	-0.36	0
bin	-0.34	0
bin	-0.32	0
bin	-0.3	0
bin	-0.28	0
bin	-0.26	0
bin	-0.24	0
bin	-0.22	0
bin	-0.2	0
bin	-0.18	0
bin	-0.16	0
bin	-0.14	0
bin	-0.12	0
bin	-0.1	0
bin	-0.08	0
bin	-0.06	0
bin	-0.04	0
bin	-0.02	0
bin	0	225
bin	0.02	0
bin	0.04	0
bin	0.06	0
bin	0.08	0
bin	0.1	0
bin	0.12	0
bin	0.14	0
bin	0.16	0
bin	0.18	0
bin	0.2	0
bin	0.22	0
bin	0.24	0
bin	0.26	0
bin	0.28	0
bin	0.3	0
bin	0.32	0
bin	0.34	0
bin	0.36	0
bin	0.38	0
bin	0.4	0
bin	0.42	0
bin	0.44	0
bin	0.46	0
bin	0.48	0
bin	0.5	0
scalar VPNBlockNetwork.gateway.eth[0].queue outgoingPackets:count 225
attr recordingmode count
attr source packetPulled
attr title "outgoing packets, count"
attr unit pk
scalar VPNBlockNetwork.gateway.eth[0].queue outgoingPacketLengths:sum 132976
attr interpolationmode none
attr recordingmode sum
attr source packetLength(packetPulled)
attr title "outgoing packet lengths, sum"
attr unit b
statistic VPNBlockNetwork.gateway.eth[0].queue outgoingPacketLengths:histogram
field count 225
field mean 591.00444444444
field stddev 14.933333333332
field min 368
field max 592
field sum 132976
field sqrsum 78639360
attr interpolationmode none
attr recordingmode histogram
attr source packetLength(packetPulled)
attr title "outgoing packet lengths"
attr unit b
bin	-inf	0
bin	310	0
bin	315	0
bin	320	0
bin	325	0
bin	330	0
bin	335	0
bin	340	0
bin	345	0
bin	350	0
bin	355	0
bin	360	0
bin	365	1
bin	370	0
bin	375	0
bin	380	0
bin	385	0
bin	390	0
bin	395	0
bin	400	0
bin	405	0
bin	410	0
bin	415	0
bin	420	0
bin	425	0
bin	430	0
bin	435	0
bin	440	0
bin	445	0
bin	450	0
bin	455	0
bin	460	0
bin	465	0
bin	470	0
bin	475	0
bin	480	0
bin	485	0
bin	490	0
bin	495	0
bin	500	0
bin	505	0
bin	510	0
bin	515	0
bin	520	0
bin	525	0
bin	530	0
bin	535	0
bin	540	0
bin	545	0
bin	550	0
bin	555	0
bin	560	0
bin	565	0
bin	570	0
bin	575	0
bin	580	0
bin	585	0
bin	590	224
bin	595	0
bin	600	0
bin	605	0
bin	610	0
bin	615	0
bin	620	0
bin	625	0
bin	630	0
bin	635	0
bin	640	0
bin	645	0
bin	650	0
statistic VPNBlockNetwork.gateway.eth[0].queue flowQueueingTime:histogram
field count 0
field mean nan
field stddev nan
field min nan
field max nan
field sum 0
field sqrsum 0
attr interpolationmode none
attr recordingmode histogram
attr source queueingTime(demuxFlow(packetPulled))
attr title "flow queueing times"
attr unit s
bin	-inf	0
bin	0	0
bin	1	0
scalar VPNBlockNetwork.gateway.eth[0].queue incomingPackets:count 225
attr recordingmode count
attr source packetPushStarted
attr title "incoming packets, count"
attr unit pk
scalar VPNBlockNetwork.gateway.eth[0].queue incomingPacketLengths:sum 132976
attr interpolationmode none
attr recordingmode sum
attr source packetLength(packetPushStarted)
attr title "incoming packet lengths, sum"
attr unit b
statistic VPNBlockNetwork.gateway.eth[0].queue incomingPacketLengths:histogram
field count 225
field mean 591.00444444444
field stddev 14.933333333332
field min 368
field max 592
field sum 132976
field sqrsum 78639360
attr interpolationmode none
attr recordingmode histogram
attr source packetLength(packetPushStarted)
attr title "incoming packet lengths"
attr unit b
bin	-inf	0
bin	310	0
bin	315	0
bin	320	0
bin	325	0
bin	330	0
bin	335	0
bin	340	0
bin	345	0
bin	350	0
bin	355	0
bin	360	0
bin	365	1
bin	370	0
bin	375	0
bin	380	0
bin	385	0
bin	390	0
bin	395	0
bin	400	0
bin	405	0
bin	410	0
bin	415	0
bin	420	0
bin	425	0
bin	430	0
bin	435	0
bin	440	0
bin	445	0
bin	450	0
bin	455	0
bin	460	0
bin	465	0
bin	470	0
bin	475	0
bin	480	0
bin	485	0
bin	490	0
bin	495	0
bin	500	0
bin	505	0
bin	510	0
bin	515	0
bin	520	0
bin	525	0
bin	530	0
bin	535	0
bin	540	0
bin	545	0
bin	550	0
bin	555	0
bin	560	0
bin	565	0
bin	570	0
bin	575	0
bin	580	0
bin	585	0
bin	590	224
bin	595	0
bin	600	0
bin	605	0
bin	610	0
bin	615	0
bin	620	0
bin	625	0
bin	630	0
bin	635	0
bin	640	0
bin	645	0
bin	650	0
scalar VPNBlockNetwork.gateway.eth[0].queue droppedPacketsQueueOverflow:count 0
attr interpolationmode none
attr recordingmode count
attr source packetDropReasonIsQueueOverflow(packetDropped)
attr title "dropped packets: queue overflow, count"
attr unit pk
scalar VPNBlockNetwork.gateway.eth[0].queue droppedPacketLengthsQueueOverflow:sum 0
attr interpolationmode none
attr recordingmode sum
attr source packetLength(packetDropReasonIsQueueOverflow(packetDropped))
attr title "dropped packet lengths: queue overflow, sum"
attr unit b
par VPNBlockNetwork.gateway.eth[0].mac typename "\"inet.linklayer.ethernet.basic.EthernetMac\""
par VPNBlockNetwork.gateway.eth[0].mac interfaceTableModule "\"VPNBlockNetwork.gateway.interfaceTable\""
par VPNBlockNetwork.gateway.eth[0].mac displayStringTextFormat "\"rate: %b\\nsent: %s, rcvd: %r\\nqueue: %q, drop: %d\""
par VPNBlockNetwork.gateway.eth[0].mac sendRawBytes false
par VPNBlockNetwork.gateway.eth[0].mac promiscuous false
par VPNBlockNetwork.gateway.eth[0].mac duplexMode true
par VPNBlockNetwork.gateway.eth[0].mac mtu 1500B
attr unit B
par VPNBlockNetwork.gateway.eth[0].mac fcsMode "\"declared\""
attr enum declared,computed
par VPNBlockNetwork.gateway.eth[0].mac stopOperationExtraTime -1s
attr unit s
par VPNBlockNetwork.gateway.eth[0].mac stopOperationTimeout 2s
attr unit s
scalar VPNBlockNetwork.gateway.eth[0].mac "simulated time" 100
scalar VPNBlockNetwork.gateway.eth[0].mac full-duplex 1
scalar VPNBlockNetwork.gateway.eth[0].mac "frames/sec sent" 2.25
scalar VPNBlockNetwork.gateway.eth[0].mac "frames/sec rcvd" 2.25
scalar VPNBlockNetwork.gateway.eth[0].mac "bits/sec sent" 1331.2
scalar VPNBlockNetwork.gateway.eth[0].mac "bits/sec rcvd" 22333.44
scalar VPNBlockNetwork.gateway.eth[0].mac "rx channel idle (%)" 99.97752256
scalar VPNBlockNetwork.gateway.eth[0].mac "rx channel utilization (%)" 0.02247744
scalar VPNBlockNetwork.gateway.eth[0].mac txPk:count 225
attr interpolationmode none
attr recordingmode count
attr source packetSentToLower
attr title "packets transmitted, count"
scalar VPNBlockNetwork.gateway.eth[0].mac txPk:sum(packetBytes) 16640
attr interpolationmode none
attr recordingmode sum(packetBytes)
attr source packetSentToLower
attr title "packets transmitted, sum(packetBytes)"
scalar VPNBlockNetwork.gateway.eth[0].mac packetReceivedFromUpper:count 225
attr interpolationmode none
attr recordingmode count
attr source packetReceivedFromUpper
attr title "packet bytes from higher layer, count"
scalar VPNBlockNetwork.gateway.eth[0].mac packetReceivedFromUpper:sum(packetBytes) 16622
attr interpolationmode none
attr recordingmode sum(packetBytes)
attr source packetReceivedFromUpper
attr title "packet bytes from higher layer, sum(packetBytes)"
scalar VPNBlockNetwork.gateway.eth[0].mac passedUpPk:count 225
attr interpolationmode none
attr recordingmode count
attr source packetSentToUpper
attr title "packets passed to higher layer, count"
scalar VPNBlockNetwork.gateway.eth[0].mac passedUpPk:sum(packetBytes) 279168
attr interpolationmode none
attr recordingmode sum(packetBytes)
attr source packetSentToUpper
attr title "packets passed to higher layer, sum(packetBytes)"
scalar VPNBlockNetwork.gateway.eth[0].mac packetDropIncorrectlyReceived:count 0
attr interpolationmode none
attr recordingmode count
attr source packetDropReasonIsIncorrectlyReceived(packetDropped)
attr title "packet drop: incorrectly received, count"
scalar VPNBlockNetwork.gateway.eth[0].mac packetDropIncorrectlyReceived:sum(packetBytes) 0
attr interpolationmode none
attr recordingmode sum(packetBytes)
attr source packetDropReasonIsIncorrectlyReceived(packetDropped)
attr title "packet drop: incorrectly received, sum(packetBytes)"
scalar VPNBlockNetwork.gateway.eth[0].mac packetDropInterfaceDown:count 0
attr interpolationmode none
attr recordingmode count
attr source packetDropReasonIsInterfaceDown(packetDropped)
attr title "packet drop: interface down, count"
scalar VPNBlockNetwork.gateway.eth[0].mac packetDropInterfaceDown:sum(packetBytes) 0
attr interpolationmode none
attr recordingmode sum(packetBytes)
attr source packetDropReasonIsInterfaceDown(packetDropped)
attr title "packet drop: interface down, sum(packetBytes)"
scalar VPNBlockNetwork.gateway.eth[0].mac packetDropNotAddressedToUs:count 0
attr interpolationmode none
attr recordingmode count
attr source packetDropReasonIsNotAddressedToUs(packetDropped)
attr title "packet drop: not addressed to us, count"
scalar VPNBlockNetwork.gateway.eth[0].mac packetDropNotAddressedToUs:sum(packetBytes) 0
attr interpolationmode none
attr recordingmode sum(packetBytes)
attr source packetDropReasonIsNotAddressedToUs(packetDropped)
attr title "packet drop: not addressed to us, sum(packetBytes)"
scalar VPNBlockNetwork.gateway.eth[0].mac rxPausePkUnits:count 0
attr interpolationmode none
attr recordingmode count
attr title "pause units received, count"
scalar VPNBlockNetwork.gateway.eth[0].mac rxPausePkUnits:sum 0
attr interpolationmode none
attr recordingmode sum
attr title "pause units received, sum"
scalar VPNBlockNetwork.gateway.eth[0].mac txPausePkUnits:count 0
attr interpolationmode none
attr recordingmode count
attr title "pause units sent, count"
scalar VPNBlockNetwork.gateway.eth[0].mac txPausePkUnits:sum 0
attr interpolationmode none
attr recordingmode sum
attr title "pause units sent, sum"
scalar VPNBlockNetwork.gateway.eth[0].mac rxPkOk:count 225
attr interpolationmode none
attr recordingmode count
attr source rxPkOk
attr title "packets received OK, count"
scalar VPNBlockNetwork.gateway.eth[0].mac rxPkOk:sum(packetBytes) 279168
attr interpolationmode none
attr recordingmode sum(packetBytes)
attr source rxPkOk
attr title "packets received OK, sum(packetBytes)"
par VPNBlockNetwork.gateway.eth[0] typename "\"inet.linklayer.ethernet.EthernetInterface\""
par VPNBlockNetwork.gateway.eth[0] displayStringTextFormat "\"%a (%i)\\n%m\""
par VPNBlockNetwork.gateway.eth[0] recordPcap false
par VPNBlockNetwork.gateway.eth[0] numPcapRecorders 0
par VPNBlockNetwork.gateway.eth[0] interfaceTableModule "\"VPNBlockNetwork.gateway.interfaceTable\""
par VPNBlockNetwork.gateway.eth[0] protocol "\"ethernetmac\""
par VPNBlockNetwork.gateway.eth[0] address "\"0A-AA-00-00-00-02\""
attr mutable ""
par VPNBlockNetwork.gateway.eth[0] duplexMode true
par VPNBlockNetwork.gateway.eth[0] csmacdSupport false
par VPNBlockNetwork.gateway.eth[0] bitrate 1e+08bps
attr unit bps
par VPNBlockNetwork.gateway.eth[0] fcsMode "\"declared\""
attr enum declared,computed
scalar VPNBlockNetwork.gateway.eth[0] packetDropInterfaceDown:count 0
attr interpolationmode none
attr recordingmode count
attr source packetDropReasonIsInterfaceDown(packetDropped)
attr title "packet drops: interface down, count"
scalar VPNBlockNetwork.gateway.eth[0] packetDropInterfaceDown:sum(packetBytes) 0
attr interpolationmode none
attr recordingmode sum(packetBytes)
attr source packetDropReasonIsInterfaceDown(packetDropped)
attr title "packet drops: interface down, sum(packetBytes)"
scalar VPNBlockNetwork.gateway.eth[0] packetDropNoCarrier:count 0
attr interpolationmode none
attr recordingmode count
attr source packetDropReasonIsNoCarrier(packetDropped)
attr title "packet drops: no carrier, count"
scalar VPNBlockNetwork.gateway.eth[0] packetDropNoCarrier:sum(packetBytes) 0
attr interpolationmode none
attr recordingmode sum(packetBytes)
attr source packetDropReasonIsNoCarrier(packetDropped)
attr title "packet drops: no carrier, sum(packetBytes)"
par VPNBlockNetwork.gateway.eth[1].mac.phys$o.channel typename "\"ned.IdealChannel\""
par VPNBlockNetwork.gateway.eth[1].phys$i.channel typename "\"ned.IdealChannel\""
par VPNBlockNetwork.gateway.eth[1].upperLayerIn.channel typename "\"ned.IdealChannel\""
par VPNBlockNetwork.gateway.eth[1].mac.upperLayerOut.channel typename "\"ned.IdealChannel\""
par VPNBlockNetwork.gateway.eth[1].queue typename "\"inet.linklayer.ethernet.common.EthernetQueue\""
par VPNBlockNetwork.gateway.eth[1].queue displayStringTextFormat "\"contains %p pk (%l) pushed %u\\npulled %o removed %r dropped %d\""
par VPNBlockNetwork.gateway.eth[1].queue packetCapacity 1000
par VPNBlockNetwork.gateway.eth[1].queue dataCapacity -1b
attr unit b
par VPNBlockNetwork.gateway.eth[1].queue dropperClass "\"inet::queueing::PacketAtCollectionEndDropper\""
par VPNBlockNetwork.gateway.eth[1].queue comparatorClass "\"inet::EthernetFrameTypeComparator\""
par VPNBlockNetwork.gateway.eth[1].queue bufferModule "\"\""
scalar VPNBlockNetwork.gateway.eth[1].queue queueLength:last 0
attr autoWarmupFilter false
attr interpolationmode sample-hold
attr recordingmode last
attr source "warmup(atomic(constant0(packetPushEnded) + count(packetPushStarted) - count(packetPulled) - count(packetRemoved) - count(packetDropped)))"
attr title "queue length, last"
attr unit pk
scalar VPNBlockNetwork.gateway.eth[1].queue queueLength:max 0
attr autoWarmupFilter false
attr interpolationmode sample-hold
attr recordingmode max
attr source "warmup(atomic(constant0(packetPushEnded) + count(packetPushStarted) - count(packetPulled) - count(packetRemoved) - count(packetDropped)))"
attr title "queue length, max"
attr unit pk
scalar VPNBlockNetwork.gateway.eth[1].queue queueLength:timeavg 0
attr autoWarmupFilter false
attr interpolationmode sample-hold
attr recordingmode timeavg
attr source "warmup(atomic(constant0(packetPushEnded) + count(packetPushStarted) - count(packetPulled) - count(packetRemoved) - count(packetDropped)))"
attr title "queue length, timeavg"
attr unit pk
scalar VPNBlockNetwork.gateway.eth[1].queue queueBitLength:last 0
attr autoWarmupFilter false
attr interpolationmode sample-hold
attr recordingmode last
attr source "warmup(atomic(constant0(packetPushEnded) + sum(packetLength(packetPushStarted)) - sum(packetLength(packetPulled)) - sum(packetLength(packetRemoved)) - sum(packetLength(packetDropped))))"
attr title "queue bit length, last"
attr unit b
scalar VPNBlockNetwork.gateway.eth[1].queue queueBitLength:max 0
attr autoWarmupFilter false
attr interpolationmode sample-hold
attr recordingmode max
attr source "warmup(atomic(constant0(packetPushEnded) + sum(packetLength(packetPushStarted)) - sum(packetLength(packetPulled)) - sum(packetLength(packetRemoved)) - sum(packetLength(packetDropped))))"
attr title "queue bit length, max"
attr unit b
scalar VPNBlockNetwork.gateway.eth[1].queue queueBitLength:timeavg 0
attr autoWarmupFilter false
attr interpolationmode sample-hold
attr recordingmode timeavg
attr source "warmup(atomic(constant0(packetPushEnded) + sum(packetLength(packetPushStarted)) - sum(packetLength(packetPulled)) - sum(packetLength(packetRemoved)) - sum(packetLength(packetDropped))))"
attr title "queue bit length, timeavg"
attr unit b
statistic VPNBlockNetwork.gateway.eth[1].queue queueingTime:histogram
field count 225
field mean 0
field stddev 0
field min 0
field max 0
field sum 0
field sqrsum 0
attr interpolationmode none
attr recordingmode histogram
attr source queueingTime(packetPulled)
attr title "queueing times"
attr unit s
bin	-inf	0
bin	-0.5	0
bin	-0.48	0
bin	-0.46	0
bin	-0.44	0
bin	-0.42	0
bin	-0.4	0
bin	-0.38	0
bin	-0.36	0
bin	-0.34	0
bin	-0.32	0
bin	-0.3	0
bin	-0.28	0
bin	-0.26	0
bin	-0.24	0
bin	-0.22	0
bin	-0.2	0
bin	-0.18	0
bin	-0.16	0
bin	-0.14	0
bin	-0.12	0
bin	-0.1	0
bin	-0.08	0
bin	-0.06	0
bin	-0.04	0
bin	-0.02	0
bin	0	225
bin	0.02	0
bin	0.04	0
bin	0.06	0
bin	0.08	0
bin	0.1	0
bin	0.12	0
bin	0.14	0
bin	0.16	0
bin	0.18	0
bin	0.2	0
bin	0.22	0
bin	0.24	0
bin	0.26	0
bin	0.28	0
bin	0.3	0
bin	0.32	0
bin	0.34	0
bin	0.36	0
bin	0.38	0
bin	0.4	0
bin	0.42	0
bin	0.44	0
bin	0.46	0
bin	0.48	0
bin	0.5	0
scalar VPNBlockNetwork.gateway.eth[1].queue outgoingPackets:count 225
attr recordingmode count
attr source packetPulled
attr title "outgoing packets, count"
attr unit pk
scalar VPNBlockNetwork.gateway.eth[1].queue outgoingPacketLengths:sum 2233200
attr interpolationmode none
attr recordingmode sum
attr source packetLength(packetPulled)
attr title "outgoing packet lengths, sum"
attr unit b
statistic VPNBlockNetwork.gateway.eth[1].queue outgoingPacketLengths:histogram
field count 225
field mean 9925.3333333333
field stddev 640
field min 368
field max 9968
field sum 2233200
field sqrsum 22257004800
attr interpolationmode none
attr recordingmode histogram
attr source packetLength(packetPulled)
attr title "outgoing packet lengths"
attr unit b
bin	-inf	0
bin	0	0
bin	200	1
bin	400	0
bin	600	0
bin	800	0
bin	1000	0
bin	1200	0
bin	1400	0
bin	1600	0
bin	1800	0
bin	2000	0
bin	2200	0
bin	2400	0
bin	2600	0
bin	2800	0
bin	3000	0
bin	3200	0
bin	3400	0
bin	3600	0
bin	3800	0
bin	4000	0
bin	4200	0
bin	4400	0
bin	4600	0
bin	4800	0
bin	5000	0
bin	5200	0
bin	5400	0
bin	5600	0
bin	5800	0
bin	6000	0
bin	6200	0
bin	6400	0
bin	6600	0
bin	6800	0
bin	7000	0
bin	7200	0
bin	7400	0
bin	7600	0
bin	7800	0
bin	8000	0
bin	8200	0
bin	8400	0
bin	8600	0
bin	8800	0
bin	9000	0
bin	9200	0
bin	9400	0
bin	9600	0
bin	9800	224
bin	10000	0
bin	10200	0
bin	10400	0
bin	10600	0
bin	10800	0
bin	11000	0
bin	11200	0
bin	11400	0
bin	11600	0
bin	11800	0
bin	12000	0
bin	12200	0
bin	12400	0
statistic VPNBlockNetwork.gateway.eth[1].queue flowQueueingTime:histogram
field count 0
field mean nan
field stddev nan
field min nan
field max nan
field sum 0
field sqrsum 0
attr interpolationmode none
attr recordingmode histogram
attr source queueingTime(demuxFlow(packetPulled))
attr title "flow queueing times"
attr unit s
bin	-inf	0
bin	0	0
bin	1	0
scalar VPNBlockNetwork.gateway.eth[1].queue incomingPackets:count 225
attr recordingmode count
attr source packetPushStarted
attr title "incoming packets, count"
attr unit pk
scalar VPNBlockNetwork.gateway.eth[1].queue incomingPacketLengths:sum 2233200
attr interpolationmode none
attr recordingmode sum
attr source packetLength(packetPushStarted)
attr title "incoming packet lengths, sum"
attr unit b
statistic VPNBlockNetwork.gateway.eth[1].queue incomingPacketLengths:histogram
field count 225
field mean 9925.3333333333
field stddev 640
field min 368
field max 9968
field sum 2233200
field sqrsum 22257004800
attr interpolationmode none
attr recordingmode histogram
attr source packetLength(packetPushStarted)
attr title "incoming packet lengths"
attr unit b
bin	-inf	0
bin	0	0
bin	200	1
bin	400	0
bin	600	0
bin	800	0
bin	1000	0
bin	1200	0
bin	1400	0
bin	1600	0
bin	1800	0
bin	2000	0
bin	2200	0
bin	2400	0
bin	2600	0
bin	2800	0
bin	3000	0
bin	3200	0
bin	3400	0
bin	3600	0
bin	3800	0
bin	4000	0
bin	4200	0
bin	4400	0
bin	4600	0
bin	4800	0
bin	5000	0
bin	5200	0
bin	5400	0
bin	5600	0
bin	5800	0
bin	6000	0
bin	6200	0
bin	6400	0
bin	6600	0
bin	6800	0
bin	7000	0
bin	7200	0
bin	7400	0
bin	7600	0
bin	7800	0
bin	8000	0
bin	8200	0
bin	8400	0
bin	8600	0
bin	8800	0
bin	9000	0
bin	9200	0
bin	9400	0
bin	9600	0
bin	9800	224
bin	10000	0
bin	10200	0
bin	10400	0
bin	10600	0
bin	10800	0
bin	11000	0
bin	11200	0
bin	11400	0
bin	11600	0
bin	11800	0
bin	12000	0
bin	12200	0
bin	12400	0
scalar VPNBlockNetwork.gateway.eth[1].queue droppedPacketsQueueOverflow:count 0
attr interpolationmode none
attr recordingmode count
attr source packetDropReasonIsQueueOverflow(packetDropped)
attr title "dropped packets: queue overflow, count"
attr unit pk
scalar VPNBlockNetwork.gateway.eth[1].queue droppedPacketLengthsQueueOverflow:sum 0
attr interpolationmode none
attr recordingmode sum
attr source packetLength(packetDropReasonIsQueueOverflow(packetDropped))
attr title "dropped packet lengths: queue overflow, sum"
attr unit b
par VPNBlockNetwork.gateway.eth[1].mac typename "\"inet.linklayer.ethernet.basic.EthernetMac\""
par VPNBlockNetwork.gateway.eth[1].mac interfaceTableModule "\"VPNBlockNetwork.gateway.interfaceTable\""
par VPNBlockNetwork.gateway.eth[1].mac displayStringTextFormat "\"rate: %b\\nsent: %s, rcvd: %r\\nqueue: %q, drop: %d\""
par VPNBlockNetwork.gateway.eth[1].mac sendRawBytes false
par VPNBlockNetwork.gateway.eth[1].mac promiscuous false
par VPNBlockNetwork.gateway.eth[1].mac duplexMode true
par VPNBlockNetwork.gateway.eth[1].mac mtu 1500B
attr unit B
par VPNBlockNetwork.gateway.eth[1].mac fcsMode "\"declared\""
attr enum declared,computed
par VPNBlockNetwork.gateway.eth[1].mac stopOperationExtraTime -1s
attr unit s
par VPNBlockNetwork.gateway.eth[1].mac stopOperationTimeout 2s
attr unit s
scalar VPNBlockNetwork.gateway.eth[1].mac "simulated time" 100
scalar VPNBlockNetwork.gateway.eth[1].mac full-duplex 1
scalar VPNBlockNetwork.gateway.eth[1].mac "frames/sec sent" 2.25
scalar VPNBlockNetwork.gateway.eth[1].mac "frames/sec rcvd" 2.25
scalar VPNBlockNetwork.gateway.eth[1].mac "bits/sec sent" 22333.44
scalar VPNBlockNetwork.gateway.eth[1].mac "bits/sec rcvd" 1331.2
scalar VPNBlockNetwork.gateway.eth[1].mac "rx channel idle (%)" 99.9985248
scalar VPNBlockNetwork.gateway.eth[1].mac "rx channel utilization (%)" 0.0014752
scalar VPNBlockNetwork.gateway.eth[1].mac txPk:count 225
attr interpolationmode none
attr recordingmode count
attr source packetSentToLower
attr title "packets transmitted, count"
scalar VPNBlockNetwork.gateway.eth[1].mac txPk:sum(packetBytes) 279168
attr interpolationmode none
attr recordingmode sum(packetBytes)
attr source packetSentToLower
attr title "packets transmitted, sum(packetBytes)"
scalar VPNBlockNetwork.gateway.eth[1].mac packetReceivedFromUpper:count 225
attr interpolationmode none
attr recordingmode count
attr source packetReceivedFromUpper
attr title "packet bytes from higher layer, count"
scalar VPNBlockNetwork.gateway.eth[1].mac packetReceivedFromUpper:sum(packetBytes) 279150
attr interpolationmode none
attr recordingmode sum(packetBytes)
attr source packetReceivedFromUpper
attr title "packet bytes from higher layer, sum(packetBytes)"
scalar VPNBlockNetwork.gateway.eth[1].mac passedUpPk:count 225
attr interpolationmode none
attr recordingmode count
attr source packetSentToUpper
attr title "packets passed to higher layer, count"
scalar VPNBlockNetwork.gateway.eth[1].mac passedUpPk:sum(packetBytes) 16640
attr interpolationmode none
attr recordingmode sum(packetBytes)
attr source packetSentToUpper
attr title "packets passed to higher layer, sum(packetBytes)"
scalar VPNBlockNetwork.gateway.eth[1].mac packetDropIncorrectlyReceived:count 0
attr interpolationmode none
attr recordingmode count
attr source packetDropReasonIsIncorrectlyReceived(packetDropped)
attr title "packet drop: incorrectly received, count"
scalar VPNBlockNetwork.gateway.eth[1].mac packetDropIncorrectlyReceived:sum(packetBytes) 0
attr interpolationmode none
attr recordingmode sum(packetBytes)
attr source packetDropReasonIsIncorrectlyReceived(packetDropped)
attr title "packet drop: incorrectly received, sum(packetBytes)"
scalar VPNBlockNetwork.gateway.eth[1].mac packetDropInterfaceDown:count 0
attr interpolationmode none
attr recordingmode count
attr source packetDropReasonIsInterfaceDown(packetDropped)
attr title "packet drop: interface down, count"
scalar VPNBlockNetwork.gateway.eth[1].mac packetDropInterfaceDown:sum(packetBytes) 0
attr interpolationmode none
attr recordingmode sum(packetBytes)
attr source packetDropReasonIsInterfaceDown(packetDropped)
attr title "packet drop: interface down, sum(packetBytes)"
scalar VPNBlockNetwork.gateway.eth[1].mac packetDropNotAddressedToUs:count 0
attr interpolationmode none
attr recordingmode count
attr source packetDropReasonIsNotAddressedToUs(packetDropped)
attr title "packet drop: not addressed to us, count"
scalar VPNBlockNetwork.gateway.eth[1].mac packetDropNotAddressedToUs:sum(packetBytes) 0
attr interpolationmode none
attr recordingmode sum(packetBytes)
attr source packetDropReasonIsNotAddressedToUs(packetDropped)
attr title "packet drop: not addressed to us, sum(packetBytes)"
scalar VPNBlockNetwork.gateway.eth[1].mac rxPausePkUnits:count 0
attr interpolationmode none
attr recordingmode count
attr title "pause units received, count"
scalar VPNBlockNetwork.gateway.eth[1].mac rxPausePkUnits:sum 0
attr interpolationmode none
attr recordingmode sum
attr title "pause units received, sum"
scalar VPNBlockNetwork.gateway.eth[1].mac txPausePkUnits:count 0
attr interpolationmode none
attr recordingmode count
attr title "pause units sent, count"
scalar VPNBlockNetwork.gateway.eth[1].mac txPausePkUnits:sum 0
attr interpolationmode none
attr recordingmode sum
attr title "pause units sent, sum"
scalar VPNBlockNetwork.gateway.eth[1].mac rxPkOk:count 225
attr interpolationmode none
attr recordingmode count
attr source rxPkOk
attr title "packets received OK, count"
scalar VPNBlockNetwork.gateway.eth[1].mac rxPkOk:sum(packetBytes) 16640
attr interpolationmode none
attr recordingmode sum(packetBytes)
attr source rxPkOk
attr title "packets received OK, sum(packetBytes)"
par VPNBlockNetwork.gateway.eth[1] typename "\"inet.linklayer.ethernet.EthernetInterface\""
par VPNBlockNetwork.gateway.eth[1] displayStringTextFormat "\"%a (%i)\\n%m\""
par VPNBlockNetwork.gateway.eth[1] recordPcap false
par VPNBlockNetwork.gateway.eth[1] numPcapRecorders 0
par VPNBlockNetwork.gateway.eth[1] interfaceTableModule "\"VPNBlockNetwork.gateway.interfaceTable\""
par VPNBlockNetwork.gateway.eth[1] protocol "\"ethernetmac\""
par VPNBlockNetwork.gateway.eth[1] address "\"0A-AA-00-00-00-03\""
attr mutable ""
par VPNBlockNetwork.gateway.eth[1] duplexMode true
par VPNBlockNetwork.gateway.eth[1] csmacdSupport false
par VPNBlockNetwork.gateway.eth[1] bitrate 1e+08bps
attr unit bps
par VPNBlockNetwork.gateway.eth[1] fcsMode "\"declared\""
attr enum declared,computed
scalar VPNBlockNetwork.gateway.eth[1] packetDropInterfaceDown:count 0
attr interpolationmode none
attr recordingmode count
attr source packetDropReasonIsInterfaceDown(packetDropped)
attr title "packet drops: interface down, count"
scalar VPNBlockNetwork.gateway.eth[1] packetDropInterfaceDown:sum(packetBytes) 0
attr interpolationmode none
attr recordingmode sum(packetBytes)
attr source packetDropReasonIsInterfaceDown(packetDropped)
attr title "packet drops: interface down, sum(packetBytes)"
scalar VPNBlockNetwork.gateway.eth[1] packetDropNoCarrier:count 0
attr interpolationmode none
attr recordingmode count
attr source packetDropReasonIsNoCarrier(packetDropped)
attr title "packet drops: no carrier, count"
scalar VPNBlockNetwork.gateway.eth[1] packetDropNoCarrier:sum(packetBytes) 0
attr interpolationmode none
attr recordingmode sum(packetBytes)
attr source packetDropReasonIsNoCarrier(packetDropped)
attr title "packet drops: no carrier, sum(packetBytes)"
par VPNBlockNetwork.gateway.ipv4.transportIn.channel typename "\"ned.IdealChannel\""
par VPNBlockNetwork.gateway.ipv4.up.out[0].channel typename "\"ned.IdealChannel\""
par VPNBlockNetwork.gateway.ipv4.lp.out[2].channel typename "\"ned.IdealChannel\""
par VPNBlockNetwork.gateway.ipv4.ifIn.channel typename "\"ned.IdealChannel\""
par VPNBlockNetwork.gateway.ipv4.configurator typename "\"inet.networklayer.configurator.ipv4.Ipv4NodeConfigurator\""
par VPNBlockNetwork.gateway.ipv4.configurator interfaceTableModule "\"VPNBlockNetwork.gateway.interfaceTable\""
par VPNBlockNetwork.gateway.ipv4.configurator routingTableModule "\"VPNBlockNetwork.gateway.ipv4.routingTable\""
par VPNBlockNetwork.gateway.ipv4.configurator networkConfiguratorModule "\"configurator\""
par VPNBlockNetwork.gateway.ipv4.configurator configureRoutingTable true
par VPNBlockNetwork.gateway.ipv4.routingTable typename "\"inet.networklayer.ipv4.Ipv4RoutingTable\""
par VPNBlockNetwork.gateway.ipv4.routingTable interfaceTableModule "\"VPNBlockNetwork.gateway.interfaceTable\""
par VPNBlockNetwork.gateway.ipv4.routingTable routerId "\"auto\""
par VPNBlockNetwork.gateway.ipv4.routingTable netmaskRoutes "\"*\""
par VPNBlockNetwork.gateway.ipv4.routingTable forwarding true
par VPNBlockNetwork.gateway.ipv4.routingTable multicastForwarding false
par VPNBlockNetwork.gateway.ipv4.routingTable useAdminDist false
par VPNBlockNetwork.gateway.ipv4.routingTable routingFile "\"\""
par VPNBlockNetwork.gateway.ipv4.natTable typename "\"inet.networklayer.ipv4.Ipv4NatTable\""
par VPNBlockNetwork.gateway.ipv4.natTable networkProtocolModule "\"^.ip\""
par VPNBlockNetwork.gateway.ipv4.natTable config "<config/> at content:1"
par VPNBlockNetwork.gateway.ipv4.up typename "\"inet.common.MessageDispatcher\""
par VPNBlockNetwork.gateway.ipv4.up displayStringTextFormat "\"processed %p pk (%l)\""
par VPNBlockNetwork.gateway.ipv4.up forwardServiceRegistration true
par VPNBlockNetwork.gateway.ipv4.up forwardProtocolRegistration true
par VPNBlockNetwork.gateway.ipv4.igmp typename "\"inet.networklayer.ipv4.Igmpv2\""
par VPNBlockNetwork.gateway.ipv4.igmp interfaceTableModule "\"VPNBlockNetwork.gateway.interfaceTable\""
par VPNBlockNetwork.gateway.ipv4.igmp routingTableModule "\"VPNBlockNetwork.gateway.ipv4.routingTable\""
par VPNBlockNetwork.gateway.ipv4.igmp crcMode "\"declared\""
attr enum declared,computed
par VPNBlockNetwork.gateway.ipv4.igmp enabled true
par VPNBlockNetwork.gateway.ipv4.igmp robustnessVariable 2
par VPNBlockNetwork.gateway.ipv4.igmp queryInterval 125s
attr unit s
par VPNBlockNetwork.gateway.ipv4.igmp queryResponseInterval 10s
attr unit s
par VPNBlockNetwork.gateway.ipv4.igmp groupMembershipInterval 260s
attr unit s
par VPNBlockNetwork.gateway.ipv4.igmp otherQuerierPresentInterval 255s
attr unit s
par VPNBlockNetwork.gateway.ipv4.igmp startupQueryInterval 31.25s
attr unit s
par VPNBlockNetwork.gateway.ipv4.igmp startupQueryCount 2
par VPNBlockNetwork.gateway.ipv4.igmp lastMemberQueryInterval 1s
attr unit s
par VPNBlockNetwork.gateway.ipv4.igmp lastMemberQueryCount 2
par VPNBlockNetwork.gateway.ipv4.igmp unsolicitedReportInterval 10s
attr unit s
par VPNBlockNetwork.gateway.ipv4.icmp typename "\"inet.networklayer.ipv4.Icmp\""
par VPNBlockNetwork.gateway.ipv4.icmp interfaceTableModule "\"VPNBlockNetwork.gateway.interfaceTable\""
par VPNBlockNetwork.gateway.ipv4.icmp routingTableModule "\"VPNBlockNetwork.gateway.ipv4.routingTable\""
par VPNBlockNetwork.gateway.ipv4.icmp crcMode "\"declared\""
attr enum declared,computed
attr mutable ""
par VPNBlockNetwork.gateway.ipv4.icmp quoteLength 8B
attr mutable ""
attr unit B
par VPNBlockNetwork.gateway.ipv4.mp typename "\"inet.common.MessageDispatcher\""
par VPNBlockNetwork.gateway.ipv4.mp displayStringTextFormat "\"processed %p pk (%l)\""
par VPNBlockNetwork.gateway.ipv4.mp forwardServiceRegistration true
par VPNBlockNetwork.gateway.ipv4.mp forwardProtocolRegistration true
par VPNBlockNetwork.gateway.ipv4.ip typename "\"inet.networklayer.ipv4.Ipv4\""
par VPNBlockNetwork.gateway.ipv4.ip interfaceTableModule "\"VPNBlockNetwork.gateway.interfaceTable\""
par VPNBlockNetwork.gateway.ipv4.ip routingTableModule "\"VPNBlockNetwork.gateway.ipv4.routingTable\""
par VPNBlockNetwork.gateway.ipv4.ip arpModule "\"VPNBlockNetwork.gateway.ipv4.arp\""
par VPNBlockNetwork.gateway.ipv4.ip icmpModule "\"VPNBlockNetwork.gateway.ipv4.icmp\""
par VPNBlockNetwork.gateway.ipv4.ip crcMode "\"declared\""
attr enum declared,computed
par VPNBlockNetwork.gateway.ipv4.ip timeToLive 32
par VPNBlockNetwork.gateway.ipv4.ip multicastTimeToLive 32
par VPNBlockNetwork.gateway.ipv4.ip fragmentTimeout 60s
attr unit s
par VPNBlockNetwork.gateway.ipv4.ip limitedBroadcast false
[...]
attr enum declared,computed
scalar VPNBlockNetwork.blockedServer.eth[0] packetDropInterfaceDown:count 0
attr interpolationmode none
attr recordingmode count
attr source packetDropReasonIsInterfaceDown(packetDropped)
attr title "packet drops: interface down, count"
scalar VPNBlockNetwork.blockedServer.eth[0] packetDropInterfaceDown:sum(packetBytes) 0
attr interpolationmode none
attr recordingmode sum(packetBytes)
attr source packetDropReasonIsInterfaceDown(packetDropped)
attr title "packet drops: interface down, sum(packetBytes)"
scalar VPNBlockNetwork.blockedServer.eth[0] packetDropNoCarrier:count 0
attr interpolationmode none
attr recordingmode count
attr source packetDropReasonIsNoCarrier(packetDropped)
attr title "packet drops: no carrier, count"
scalar VPNBlockNetwork.blockedServer.eth[0] packetDropNoCarrier:sum(packetBytes) 0
attr interpolationmode none
attr recordingmode sum(packetBytes)
attr source packetDropReasonIsNoCarrier(packetDropped)
attr title "packet drops: no carrier, sum(packetBytes)"
par VPNBlockNetwork.blockedServer.ipv4.transportIn.channel typename "\"ned.IdealChannel\""
par VPNBlockNetwork.blockedServer.ipv4.up.out[0].channel typename "\"ned.IdealChannel\""
par VPNBlockNetwork.blockedServer.ipv4.lp.out[2].channel typename "\"ned.IdealChannel\""
par VPNBlockNetwork.blockedServer.ipv4.ifIn.channel typename "\"ned.IdealChannel\""
par VPNBlockNetwork.blockedServer.ipv4.configurator typename "\"inet.networklayer.configurator.ipv4.Ipv4NodeConfigurator\""
par VPNBlockNetwork.blockedServer.ipv4.configurator interfaceTableModule "\"VPNBlockNetwork.blockedServer.interfaceTable\""
par VPNBlockNetwork.blockedServer.ipv4.configurator routingTableModule "\"VPNBlockNetwork.blockedServer.ipv4.routingTable\""
par VPNBlockNetwork.blockedServer.ipv4.configurator networkConfiguratorModule "\"configurator\""
par VPNBlockNetwork.blockedServer.ipv4.configurator configureRoutingTable true
par VPNBlockNetwork.blockedServer.ipv4.routingTable typename "\"inet.networklayer.ipv4.Ipv4RoutingTable\""
par VPNBlockNetwork.blockedServer.ipv4.routingTable interfaceTableModule "\"VPNBlockNetwork.blockedServer.interfaceTable\""
par VPNBlockNetwork.blockedServer.ipv4.routingTable routerId "\"auto\""
par VPNBlockNetwork.blockedServer.ipv4.routingTable netmaskRoutes "\"*\""
par VPNBlockNetwork.blockedServer.ipv4.routingTable forwarding false
par VPNBlockNetwork.blockedServer.ipv4.routingTable multicastForwarding false
par VPNBlockNetwork.blockedServer.ipv4.routingTable useAdminDist false
par VPNBlockNetwork.blockedServer.ipv4.routingTable routingFile "\"\""
par VPNBlockNetwork.blockedServer.ipv4.natTable typename "\"inet.networklayer.ipv4.Ipv4NatTable\""
par VPNBlockNetwork.blockedServer.ipv4.natTable networkProtocolModule "\"^.ip\""
par VPNBlockNetwork.blockedServer.ipv4.natTable config "<config/> at content:1"
par VPNBlockNetwork.blockedServer.ipv4.up typename "\"inet.common.MessageDispatcher\""
par VPNBlockNetwork.blockedServer.ipv4.up displayStringTextFormat "\"processed %p pk (%l)\""
par VPNBlockNetwork.blockedServer.ipv4.up forwardServiceRegistration true
par VPNBlockNetwork.blockedServer.ipv4.up forwardProtocolRegistration true
par VPNBlockNetwork.blockedServer.ipv4.igmp typename "\"inet.networklayer.ipv4.Igmpv2\""
par VPNBlockNetwork.blockedServer.ipv4.igmp interfaceTableModule "\"VPNBlockNetwork.blockedServer.interfaceTable\""
par VPNBlockNetwork.blockedServer.ipv4.igmp routingTableModule "\"VPNBlockNetwork.blockedServer.ipv4.routingTable\""
par VPNBlockNetwork.blockedServer.ipv4.igmp crcMode "\"declared\""
attr enum declared,computed
par VPNBlockNetwork.blockedServer.ipv4.igmp enabled true
par VPNBlockNetwork.blockedServer.ipv4.igmp robustnessVariable 2
par VPNBlockNetwork.blockedServer.ipv4.igmp queryInterval 125s
attr unit s
par VPNBlockNetwork.blockedServer.ipv4.igmp queryResponseInterval 10s
attr unit s
par VPNBlockNetwork.blockedServer.ipv4.igmp groupMembershipInterval 260s
attr unit s
par VPNBlockNetwork.blockedServer.ipv4.igmp otherQuerierPresentInterval 255s
attr unit s
par VPNBlockNetwork.blockedServer.ipv4.igmp startupQueryInterval 31.25s
attr unit s
par VPNBlockNetwork.blockedServer.ipv4.igmp startupQueryCount 2
par VPNBlockNetwork.blockedServer.ipv4.igmp lastMemberQueryInterval 1s
attr unit s
par VPNBlockNetwork.blockedServer.ipv4.igmp lastMemberQueryCount 2
par VPNBlockNetwork.blockedServer.ipv4.igmp unsolicitedReportInterval 10s
attr unit s
par VPNBlockNetwork.blockedServer.ipv4.icmp typename "\"inet.networklayer.ipv4.Icmp\""
par VPNBlockNetwork.blockedServer.ipv4.icmp interfaceTableModule "\"VPNBlockNetwork.blockedServer.interfaceTable\""
par VPNBlockNetwork.blockedServer.ipv4.icmp routingTableModule "\"VPNBlockNetwork.blockedServer.ipv4.routingTable\""
par VPNBlockNetwork.blockedServer.ipv4.icmp crcMode "\"declared\""
attr enum declared,computed
attr mutable ""
par VPNBlockNetwork.blockedServer.ipv4.icmp quoteLength 8B
attr mutable ""
attr unit B
par VPNBlockNetwork.blockedServer.ipv4.mp typename "\"inet.common.MessageDispatcher\""
par VPNBlockNetwork.blockedServer.ipv4.mp displayStringTextFormat "\"processed %p pk (%l)\""
par VPNBlockNetwork.blockedServer.ipv4.mp forwardServiceRegistration true
par VPNBlockNetwork.blockedServer.ipv4.mp forwardProtocolRegistration true
par VPNBlockNetwork.blockedServer.ipv4.ip typename "\"inet.networklayer.ipv4.Ipv4\""
par VPNBlockNetwork.blockedServer.ipv4.ip interfaceTableModule "\"VPNBlockNetwork.blockedServer.interfaceTable\""
par VPNBlockNetwork.blockedServer.ipv4.ip routingTableModule "\"VPNBlockNetwork.blockedServer.ipv4.routingTable\""
par VPNBlockNetwork.blockedServer.ipv4.ip arpModule "\"VPNBlockNetwork.blockedServer.ipv4.arp\""
par VPNBlockNetwork.blockedServer.ipv4.ip icmpModule "\"VPNBlockNetwork.blockedServer.ipv4.icmp\""
par VPNBlockNetwork.blockedServer.ipv4.ip crcMode "\"declared\""
attr enum declared,computed
par VPNBlockNetwork.blockedServer.ipv4.ip timeToLive 32
par VPNBlockNetwork.blockedServer.ipv4.ip multicastTimeToLive 32
par VPNBlockNetwork.blockedServer.ipv4.ip fragmentTimeout 60s
attr unit s
par VPNBlockNetwork.blockedServer.ipv4.ip limitedBroadcast false
par VPNBlockNetwork.blockedServer.ipv4.ip directBroadcastInterfaces "\"\""
scalar VPNBlockNetwork.blockedServer.ipv4.ip packetDropAddressResolutionFailed:count 0
attr interpolationmode none
attr recordingmode count
attr source packetDropReasonIsAddressResolutionFailed(packetDropped)
attr title "packet drop: address resolution failed, count"
scalar VPNBlockNetwork.blockedServer.ipv4.ip packetDropAddressResolutionFailed:sum(packetBytes) 0
attr interpolationmode none
attr recordingmode sum(packetBytes)
attr source packetDropReasonIsAddressResolutionFailed(packetDropped)
attr title "packet drop: address resolution failed, sum(packetBytes)"
scalar VPNBlockNetwork.blockedServer.ipv4.ip packetDropHopLimitReached:count 0
attr interpolationmode none
attr recordingmode count
attr source packetDropReasonIsHopLimitReached(packetDropped)
attr title "packet drop: hop limit reached, count"
scalar VPNBlockNetwork.blockedServer.ipv4.ip packetDropHopLimitReached:sum(packetBytes) 0
attr interpolationmode none
attr recordingmode sum(packetBytes)
attr source packetDropReasonIsHopLimitReached(packetDropped)
attr title "packet drop: hop limit reached, sum(packetBytes)"
scalar VPNBlockNetwork.blockedServer.ipv4.ip packetDropForwardingDisabled:count 0
attr interpolationmode none
attr recordingmode count
attr source packetDropReasonIsForwardingDisabled(packetDropped)
attr title "packet drop: forwarding disabled, count"
scalar VPNBlockNetwork.blockedServer.ipv4.ip packetDropForwardingDisabled:sum(packetBytes) 0
attr interpolationmode none
attr recordingmode sum(packetBytes)
attr source packetDropReasonIsForwardingDisabled(packetDropped)
attr title "packet drop: forwarding disabled, sum(packetBytes)"
scalar VPNBlockNetwork.blockedServer.ipv4.ip packetDropNoInterfaceFound:count 0
attr interpolationmode none
attr recordingmode count
attr source packetDropReasonIsNoInterfaceFound(packetDropped)
attr title "packet drop: no interface found, count"
scalar VPNBlockNetwork.blockedServer.ipv4.ip packetDropNoInterfaceFound:sum(packetBytes) 0
attr interpolationmode none
attr recordingmode sum(packetBytes)
attr source packetDropReasonIsNoInterfaceFound(packetDropped)
attr title "packet drop: no interface found, sum(packetBytes)"
scalar VPNBlockNetwork.blockedServer.ipv4.ip packetDropNoRouteFound:count 0
attr interpolationmode none
attr recordingmode count
attr source packetDropReasonIsNoRouteFound(packetDropped)
attr title "packet drop: no route found, count"
scalar VPNBlockNetwork.blockedServer.ipv4.ip packetDropNoRouteFound:sum(packetBytes) 0
attr interpolationmode none
attr recordingmode sum(packetBytes)
attr source packetDropReasonIsNoRouteFound(packetDropped)
attr title "packet drop: no route found, sum(packetBytes)"
scalar VPNBlockNetwork.blockedServer.ipv4.ip packetDropUndefined:count 0
attr interpolationmode none
attr recordingmode count
attr source packetDropReasonIsUndefined(packetDropped)
attr title "packet drop: undefined, count"
scalar VPNBlockNetwork.blockedServer.ipv4.ip packetDropUndefined:sum(packetBytes) 0
attr interpolationmode none
attr recordingmode sum(packetBytes)
attr source packetDropReasonIsUndefined(packetDropped)
attr title "packet drop: undefined, sum(packetBytes)"
par VPNBlockNetwork.blockedServer.ipv4.arp typename "\"inet.networklayer.arp.ipv4.Arp\""
par VPNBlockNetwork.blockedServer.ipv4.arp interfaceTableModule "\"VPNBlockNetwork.blockedServer.interfaceTable\""
par VPNBlockNetwork.blockedServer.ipv4.arp routingTableModule "\"VPNBlockNetwork.blockedServer.ipv4.routingTable\""
par VPNBlockNetwork.blockedServer.ipv4.arp retryTimeout 1s
attr unit s
par VPNBlockNetwork.blockedServer.ipv4.arp retryCount 3
par VPNBlockNetwork.blockedServer.ipv4.arp cacheTimeout 120s
attr unit s
par VPNBlockNetwork.blockedServer.ipv4.arp proxyArpInterfaces "\"\""
scalar VPNBlockNetwork.blockedServer.ipv4.arp arpReplySent:count 1
attr recordingmode count
attr source arpReplySent
attr title "ARP replies sent, count"
scalar VPNBlockNetwork.blockedServer.ipv4.arp arpReplySent:sum(packetBytes) 28
attr recordingmode sum(packetBytes)
attr source arpReplySent
attr title "ARP replies sent, sum(packetBytes)"
scalar VPNBlockNetwork.blockedServer.ipv4.arp arpRequestSent:count 0
attr recordingmode count
attr source arpRequestSent
attr title "ARP request sent, count"
scalar VPNBlockNetwork.blockedServer.ipv4.arp arpRequestSent:sum(packetBytes) 0
attr recordingmode sum(packetBytes)
attr source arpRequestSent
attr title "ARP request sent, sum(packetBytes)"
scalar VPNBlockNetwork.blockedServer.ipv4.arp arpResolutionFailed:count 0
attr recordingmode count
attr title "ARP failed resolutions, count"
scalar VPNBlockNetwork.blockedServer.ipv4.arp arpResolutionCompleted:count 1
attr recordingmode count
attr title "ARP completed resolutions, count"
scalar VPNBlockNetwork.blockedServer.ipv4.arp arpResolutionInitiated:count 0
attr recordingmode count
attr title "ARP initiated resolutions, count"
par VPNBlockNetwork.blockedServer.ipv4.lp typename "\"inet.common.MessageDispatcher\""
par VPNBlockNetwork.blockedServer.ipv4.lp displayStringTextFormat "\"processed %p pk (%l)\""
par VPNBlockNetwork.blockedServer.ipv4.lp forwardServiceRegistration true
par VPNBlockNetwork.blockedServer.ipv4.lp forwardProtocolRegistration true
par VPNBlockNetwork.blockedServer.ipv4 typename "\"inet.networklayer.ipv4.Ipv4NetworkLayer\""
par VPNBlockNetwork.blockedServer.ipv4 forwarding false
par VPNBlockNetwork.blockedServer.ipv4 multicastForwarding false
par VPNBlockNetwork.blockedServer.ipv4 interfaceTableModule "\"VPNBlockNetwork.blockedServer.interfaceTable\""
par VPNBlockNetwork.blockedServer.ipv4 displayStringTextFormat "\"%i\""
par VPNBlockNetwork.blockedServer.nl typename "\"inet.common.MessageDispatcher\""
par VPNBlockNetwork.blockedServer.nl displayStringTextFormat "\"processed %p pk (%l)\""
par VPNBlockNetwork.blockedServer.nl forwardServiceRegistration true
par VPNBlockNetwork.blockedServer.nl forwardProtocolRegistration true
par VPNBlockNetwork.blockedServer.udp typename "\"inet.transportlayer.udp.Udp\""
par VPNBlockNetwork.blockedServer.udp interfaceTableModule "\"VPNBlockNetwork.blockedServer.interfaceTable\""
par VPNBlockNetwork.blockedServer.udp icmpModule "\"^.ipv4.icmp\""
par VPNBlockNetwork.blockedServer.udp icmpv6Module "\"^.ipv6.icmpv6\""
par VPNBlockNetwork.blockedServer.udp crcMode "\"declared\""
attr enum disabled,declared,computed
par VPNBlockNetwork.blockedServer.udp defaultMulticastLoop true
scalar VPNBlockNetwork.blockedServer.udp packetReceived:count 224
attr interpolationmode none
attr recordingmode count
attr source packetReceived
attr title "packets received, count"
scalar VPNBlockNetwork.blockedServer.udp packetReceived:sum(packetBytes) 270592
attr interpolationmode none
attr recordingmode sum(packetBytes)
attr source packetReceived
attr title "packets received, sum(packetBytes)"
scalar VPNBlockNetwork.blockedServer.udp packetSent:count 0
attr interpolationmode none
attr recordingmode count
attr source packetSent
attr title "packets sent, count"
scalar VPNBlockNetwork.blockedServer.udp packetSent:sum(packetBytes) 0
attr interpolationmode none
attr recordingmode sum(packetBytes)
attr source packetSent
attr title "packets sent, sum(packetBytes)"
scalar VPNBlockNetwork.blockedServer.udp passedUpPk:count 0
attr interpolationmode none
attr recordingmode count
attr source packetSentToUpper
attr title "packets passed up, count"
scalar VPNBlockNetwork.blockedServer.udp droppedPkWrongPort:count 224
attr interpolationmode none
attr recordingmode count
attr source packetDropReasonIsNoPortFound(packetDropped)
attr title "packets dropped (wrong port), count"
scalar VPNBlockNetwork.blockedServer.udp droppedPkBadChecksum:count 0
attr interpolationmode none
attr recordingmode count
attr source packetDropReasonIsIncorrectlyReceived(packetDropped)
attr title "packets dropped (checksum error), count"
par VPNBlockNetwork.blockedServer.tcp typename "\"inet.transportlayer.tcp.Tcp\""
par VPNBlockNetwork.blockedServer.tcp crcMode "\"declared\""
attr enum declared,computed
par VPNBlockNetwork.blockedServer.tcp advertisedWindow 7504
par VPNBlockNetwork.blockedServer.tcp delayedAcksEnabled false
par VPNBlockNetwork.blockedServer.tcp nagleEnabled true
par VPNBlockNetwork.blockedServer.tcp limitedTransmitEnabled false
par VPNBlockNetwork.blockedServer.tcp increasedIWEnabled false
par VPNBlockNetwork.blockedServer.tcp sackSupport false
par VPNBlockNetwork.blockedServer.tcp windowScalingSupport false
par VPNBlockNetwork.blockedServer.tcp windowScalingFactor -1
par VPNBlockNetwork.blockedServer.tcp timestampSupport false
par VPNBlockNetwork.blockedServer.tcp mss 536
par VPNBlockNetwork.blockedServer.tcp msl 120s
attr unit s
par VPNBlockNetwork.blockedServer.tcp tcpAlgorithmClass "\"TcpReno\""
par VPNBlockNetwork.blockedServer.tcp useDataNotification false
par VPNBlockNetwork.blockedServer.tcp dupthresh 3
par VPNBlockNetwork.blockedServer.tcp initialSsthresh 4294967295
par VPNBlockNetwork.blockedServer.tcp stopOperationExtraTime 0s
attr unit s
par VPNBlockNetwork.blockedServer.tcp stopOperationTimeout 2s
attr unit s
par VPNBlockNetwork.blockedServer.tcp ecnWillingness false
par VPNBlockNetwork.blockedServer.tcp dctcpGamma 0.0625
par VPNBlockNetwork.blockedServer.tn typename "\"inet.common.MessageDispatcher\""
par VPNBlockNetwork.blockedServer.tn displayStringTextFormat "\"processed %p pk (%l)\""
par VPNBlockNetwork.blockedServer.tn forwardServiceRegistration true
par VPNBlockNetwork.blockedServer.tn forwardProtocolRegistration true
par VPNBlockNetwork.blockedServer.app[0] typename "\"inet.applications.udpapp.UdpBasicApp\""
par VPNBlockNetwork.blockedServer.app[0] interfaceTableModule "\"VPNBlockNetwork.blockedServer.interfaceTable\""
par VPNBlockNetwork.blockedServer.app[0] clockModule "\"\""
par VPNBlockNetwork.blockedServer.app[0] localPort 5000
par VPNBlockNetwork.blockedServer.app[0] destAddresses "\"\""
par VPNBlockNetwork.blockedServer.app[0] localAddress "\"\""
par VPNBlockNetwork.blockedServer.app[0] packetName "\"UdpBasicAppData\""
par VPNBlockNetwork.blockedServer.app[0] destPort 500
par VPNBlockNetwork.blockedServer.app[0] messageLength 0B
attr unit B
par VPNBlockNetwork.blockedServer.app[0] startTime 0s
attr unit s
par VPNBlockNetwork.blockedServer.app[0] stopTime -1s
attr unit s
par VPNBlockNetwork.blockedServer.app[0] sendInterval 0s
attr unit s
par VPNBlockNetwork.blockedServer.app[0] timeToLive -1
par VPNBlockNetwork.blockedServer.app[0] dontFragment false
par VPNBlockNetwork.blockedServer.app[0] dscp -1
par VPNBlockNetwork.blockedServer.app[0] tos -1
par VPNBlockNetwork.blockedServer.app[0] multicastInterface "\"\""
par VPNBlockNetwork.blockedServer.app[0] receiveBroadcast false
par VPNBlockNetwork.blockedServer.app[0] joinLocalMulticastGroups false
par VPNBlockNetwork.blockedServer.app[0] stopOperationExtraTime -1s
attr unit s
par VPNBlockNetwork.blockedServer.app[0] stopOperationTimeout 2s
attr unit s
scalar VPNBlockNetwork.blockedServer.app[0] "packets sent" 0
scalar VPNBlockNetwork.blockedServer.app[0] "packets received" 0
scalar VPNBlockNetwork.blockedServer.app[0] packetReceived:count 0
attr interpolationmode none
attr recordingmode count
attr source packetReceived
attr title "packets received, count"
scalar VPNBlockNetwork.blockedServer.app[0] packetReceived:sum(packetBytes) 0
attr interpolationmode none
attr recordingmode sum(packetBytes)
attr source packetReceived
attr title "packets received, sum(packetBytes)"
statistic VPNBlockNetwork.blockedServer.app[0] rcvdPkLifetime:stats
field count 0
field mean nan
field stddev nan
field min nan
field max nan
field sum 0
field sqrsum 0
attr interpolationmode none
attr recordingmode stats
attr source dataAge(packetReceived)
attr title "received packet lifetime"
attr unit s
scalar VPNBlockNetwork.blockedServer.app[0] packetSent:count 0
attr interpolationmode none
attr recordingmode count
attr source packetSent
attr title "packets sent, count"
scalar VPNBlockNetwork.blockedServer.app[0] packetSent:sum(packetBytes) 0
attr interpolationmode none
attr recordingmode sum(packetBytes)
attr source packetSent
attr title "packets sent, sum(packetBytes)"
par VPNBlockNetwork.blockedServer.at typename "\"inet.common.MessageDispatcher\""
par VPNBlockNetwork.blockedServer.at displayStringTextFormat "\"processed %p pk (%l)\""
par VPNBlockNetwork.blockedServer.at forwardServiceRegistration true
par VPNBlockNetwork.blockedServer.at forwardProtocolRegistration true
par VPNBlockNetwork.blockedServer typename "\"inet.node.inet.StandardHost\""
par VPNBlockNetwork.blockedServer hasStatus false
par VPNBlockNetwork.blockedServer osgModel "\"\""
par VPNBlockNetwork.blockedServer osgModelColor "\"\""
par VPNBlockNetwork.blockedServer canvasImage "\"\""
par VPNBlockNetwork.blockedServer canvasImageColor "\"\""
par VPNBlockNetwork.blockedServer recordPcap false
par VPNBlockNetwork.blockedServer numPcapRecorders 0
par VPNBlockNetwork.blockedServer numLoInterfaces 1
par VPNBlockNetwork.blockedServer numWlanInterfaces 0
par VPNBlockNetwork.blockedServer numEthInterfaces 0
par VPNBlockNetwork.blockedServer numPppInterfaces 0
par VPNBlockNetwork.blockedServer numTunInterfaces 0
par VPNBlockNetwork.blockedServer numVirtInterfaces 0
par VPNBlockNetwork.blockedServer fcsMode "\"declared\""
attr enum declared,computed
par VPNBlockNetwork.blockedServer hasIpv4 true
par VPNBlockNetwork.blockedServer hasIpv6 false
par VPNBlockNetwork.blockedServer hasGn false
par VPNBlockNetwork.blockedServer forwarding false
par VPNBlockNetwork.blockedServer multicastForwarding false
par VPNBlockNetwork.blockedServer hasUdp true
par VPNBlockNetwork.blockedServer hasTcp true
par VPNBlockNetwork.blockedServer hasSctp false
par VPNBlockNetwork.blockedServer numApps 1
par VPNBlockNetwork typename "\"vpnblocking.VPNBlockNetwork\""

